<?xml version="1.0" encoding="UTF-8"?>

<!-- generated on 2024-03-13 17:29:54 by Eclipse SUMO netedit Version 1.19.0
<configuration>

    <input>
        <sumocfg-file value="E:\SUMO\test\mahattan.sumocfg"/>
        <route-files value="E:\SUMO\test\randomRoutes.rou.xml"/>
        <sumo-net-file value="E:\sumo1.19.0\sumo-1.19.0\test\mahattan.net.xml"/>
    </input>

    <output>
        <output-file value="E:\sumo1.19.0\sumo-1.19.0\test\mahattan.net.xml"/>
    </output>

    <processing>
        <geometry.min-radius.fix.railways value="false"/>
        <geometry.max-grade.fix value="false"/>
        <offset.disable-normalization value="true"/>
        <lefthand value="0"/>
    </processing>

    <junctions>
        <no-turnarounds value="true"/>
        <junctions.corner-detail value="5"/>
        <junctions.limit-turn-speed value="5.50"/>
        <rectangular-lane-cut value="0"/>
    </junctions>

    <pedestrian>
        <walkingareas value="0"/>
    </pedestrian>

</configuration>
-->

<net version="1.16" junctionCornerDetail="5" limitTurnSpeed="5.50">

    <location netOffset="0.00,0.00" convBoundary="0.00,0.00,1200.00,1200.00" origBoundary="0.00,0.00,1200.00,1200.00" projParameter="!"/>

    <edge id=":A0_0" function="internal">
        <lane id=":A0_0_0" index="0" speed="8.96" length="18.06" shape="-4.80,6.40 -4.10,1.50 -2.00,-2.00 1.50,-4.10 6.40,-4.80"/>
        <lane id=":A0_0_1" index="1" speed="7.66" length="12.90" shape="-1.60,6.40 -1.10,2.90 0.40,0.40 2.90,-1.10 6.40,-1.60"/>
    </edge>
    <edge id=":A0_2" function="internal">
        <lane id=":A0_2_0" index="0" speed="3.90" length="2.58" shape="6.40,4.80 5.70,4.90 5.20,5.20 4.90,5.70 4.80,6.40"/>
        <lane id=":A0_2_1" index="1" speed="6.08" length="7.74" shape="6.40,1.60 4.30,1.90 2.80,2.80 1.90,4.30 1.60,6.40"/>
    </edge>
    <edge id=":A1_0" function="internal">
        <lane id=":A1_0_0" index="0" speed="13.89" length="20.80" shape="-4.80,410.40 -4.80,389.60"/>
        <lane id=":A1_0_1" index="1" speed="13.89" length="20.80" shape="-1.60,410.40 -1.60,389.60"/>
    </edge>
    <edge id=":A1_2" function="internal">
        <lane id=":A1_2_0" index="0" speed="9.26" length="5.01" shape="-1.60,410.40 -0.89,405.44"/>
    </edge>
    <edge id=":A1_3" function="internal">
        <lane id=":A1_3_0" index="0" speed="3.65" length="1.44" shape="-1.60,410.40 -0.80,409.20"/>
    </edge>
    <edge id=":A1_11" function="internal">
        <lane id=":A1_11_0" index="0" speed="9.26" length="14.34" shape="-0.89,405.44 -0.85,405.15 1.40,401.40 5.15,399.15 10.40,398.40"/>
    </edge>
    <edge id=":A1_12" function="internal">
        <lane id=":A1_12_0" index="0" speed="3.65" length="3.23" shape="-0.80,409.20 0.00,408.80 0.80,409.20 1.60,410.40"/>
    </edge>
    <edge id=":A1_4" function="internal">
        <lane id=":A1_4_0" index="0" speed="6.51" length="9.03" shape="10.40,404.80 7.95,405.15 6.20,406.20 5.15,407.95 4.80,410.40"/>
    </edge>
    <edge id=":A1_5" function="internal">
        <lane id=":A1_5_0" index="0" speed="9.26" length="19.35" shape="10.40,401.60 5.15,400.85 1.40,398.60 -0.85,394.85 -1.60,389.60"/>
    </edge>
    <edge id=":A1_6" function="internal">
        <lane id=":A1_6_0" index="0" speed="3.65" length="4.67" shape="10.40,401.60 9.20,400.80 8.80,400.00 9.20,399.20 10.40,398.40"/>
    </edge>
    <edge id=":A1_7" function="internal">
        <lane id=":A1_7_0" index="0" speed="6.51" length="9.03" shape="4.80,389.60 5.15,392.05 6.20,393.80 7.95,394.85 10.40,395.20"/>
    </edge>
    <edge id=":A1_8" function="internal">
        <lane id=":A1_8_0" index="0" speed="13.89" length="20.80" shape="4.80,389.60 4.80,410.40"/>
        <lane id=":A1_8_1" index="1" speed="13.89" length="20.80" shape="1.60,389.60 1.60,410.40"/>
    </edge>
    <edge id=":A1_10" function="internal">
        <lane id=":A1_10_0" index="0" speed="3.65" length="1.44" shape="1.60,389.60 0.80,390.80"/>
    </edge>
    <edge id=":A1_13" function="internal">
        <lane id=":A1_13_0" index="0" speed="3.65" length="3.23" shape="0.80,390.80 0.00,391.20 -0.80,390.80 -1.60,389.60"/>
    </edge>
    <edge id=":A2_0" function="internal">
        <lane id=":A2_0_0" index="0" speed="13.89" length="20.80" shape="-4.80,810.40 -4.80,789.60"/>
        <lane id=":A2_0_1" index="1" speed="13.89" length="20.80" shape="-1.60,810.40 -1.60,789.60"/>
    </edge>
    <edge id=":A2_2" function="internal">
        <lane id=":A2_2_0" index="0" speed="9.26" length="5.01" shape="-1.60,810.40 -0.89,805.44"/>
    </edge>
    <edge id=":A2_3" function="internal">
        <lane id=":A2_3_0" index="0" speed="3.65" length="1.44" shape="-1.60,810.40 -0.80,809.20"/>
    </edge>
    <edge id=":A2_11" function="internal">
        <lane id=":A2_11_0" index="0" speed="9.26" length="14.34" shape="-0.89,805.44 -0.85,805.15 1.40,801.40 5.15,799.15 10.40,798.40"/>
    </edge>
    <edge id=":A2_12" function="internal">
        <lane id=":A2_12_0" index="0" speed="3.65" length="3.23" shape="-0.80,809.20 0.00,808.80 0.80,809.20 1.60,810.40"/>
    </edge>
    <edge id=":A2_4" function="internal">
        <lane id=":A2_4_0" index="0" speed="6.51" length="9.03" shape="10.40,804.80 7.95,805.15 6.20,806.20 5.15,807.95 4.80,810.40"/>
    </edge>
    <edge id=":A2_5" function="internal">
        <lane id=":A2_5_0" index="0" speed="9.26" length="19.35" shape="10.40,801.60 5.15,800.85 1.40,798.60 -0.85,794.85 -1.60,789.60"/>
    </edge>
    <edge id=":A2_6" function="internal">
        <lane id=":A2_6_0" index="0" speed="3.65" length="4.67" shape="10.40,801.60 9.20,800.80 8.80,800.00 9.20,799.20 10.40,798.40"/>
    </edge>
    <edge id=":A2_7" function="internal">
        <lane id=":A2_7_0" index="0" speed="6.51" length="9.03" shape="4.80,789.60 5.15,792.05 6.20,793.80 7.95,794.85 10.40,795.20"/>
    </edge>
    <edge id=":A2_8" function="internal">
        <lane id=":A2_8_0" index="0" speed="13.89" length="20.80" shape="4.80,789.60 4.80,810.40"/>
        <lane id=":A2_8_1" index="1" speed="13.89" length="20.80" shape="1.60,789.60 1.60,810.40"/>
    </edge>
    <edge id=":A2_10" function="internal">
        <lane id=":A2_10_0" index="0" speed="3.65" length="1.44" shape="1.60,789.60 0.80,790.80"/>
    </edge>
    <edge id=":A2_13" function="internal">
        <lane id=":A2_13_0" index="0" speed="3.65" length="3.23" shape="0.80,790.80 0.00,791.20 -0.80,790.80 -1.60,789.60"/>
    </edge>
    <edge id=":A3_0" function="internal">
        <lane id=":A3_0_0" index="0" speed="8.96" length="18.06" shape="6.40,1204.80 1.50,1204.10 -2.00,1202.00 -4.10,1198.50 -4.80,1193.60"/>
        <lane id=":A3_0_1" index="1" speed="7.66" length="12.90" shape="6.40,1201.60 2.90,1201.10 0.40,1199.60 -1.10,1197.10 -1.60,1193.60"/>
    </edge>
    <edge id=":A3_2" function="internal">
        <lane id=":A3_2_0" index="0" speed="3.90" length="2.58" shape="4.80,1193.60 4.90,1194.30 5.20,1194.80 5.70,1195.10 6.40,1195.20"/>
        <lane id=":A3_2_1" index="1" speed="6.08" length="7.74" shape="1.60,1193.60 1.90,1195.70 2.80,1197.20 4.30,1198.10 6.40,1198.40"/>
    </edge>
    <edge id=":B0_0" function="internal">
        <lane id=":B0_0_0" index="0" speed="6.51" length="9.03" shape="395.20,10.40 394.85,7.95 393.80,6.20 392.05,5.15 389.60,4.80"/>
    </edge>
    <edge id=":B0_1" function="internal">
        <lane id=":B0_1_0" index="0" speed="9.26" length="19.35" shape="398.40,10.40 399.15,5.15 401.40,1.40 405.15,-0.85 410.40,-1.60"/>
    </edge>
    <edge id=":B0_2" function="internal">
        <lane id=":B0_2_0" index="0" speed="3.65" length="4.67" shape="398.40,10.40 399.20,9.20 400.00,8.80 400.80,9.20 401.60,10.40"/>
    </edge>
    <edge id=":B0_3" function="internal">
        <lane id=":B0_3_0" index="0" speed="6.51" length="9.03" shape="410.40,4.80 407.95,5.15 406.20,6.20 405.15,7.95 404.80,10.40"/>
    </edge>
    <edge id=":B0_4" function="internal">
        <lane id=":B0_4_0" index="0" speed="13.89" length="20.80" shape="410.40,4.80 389.60,4.80"/>
        <lane id=":B0_4_1" index="1" speed="13.89" length="20.80" shape="410.40,1.60 389.60,1.60"/>
    </edge>
    <edge id=":B0_6" function="internal">
        <lane id=":B0_6_0" index="0" speed="3.65" length="1.44" shape="410.40,1.60 409.20,0.80"/>
    </edge>
    <edge id=":B0_11" function="internal">
        <lane id=":B0_11_0" index="0" speed="3.65" length="3.23" shape="409.20,0.80 408.80,0.00 409.20,-0.80 410.40,-1.60"/>
    </edge>
    <edge id=":B0_7" function="internal">
        <lane id=":B0_7_0" index="0" speed="13.89" length="20.80" shape="389.60,-4.80 410.40,-4.80"/>
        <lane id=":B0_7_1" index="1" speed="13.89" length="20.80" shape="389.60,-1.60 410.40,-1.60"/>
    </edge>
    <edge id=":B0_9" function="internal">
        <lane id=":B0_9_0" index="0" speed="9.26" length="5.01" shape="389.60,-1.60 394.56,-0.89"/>
    </edge>
    <edge id=":B0_10" function="internal">
        <lane id=":B0_10_0" index="0" speed="3.65" length="1.44" shape="389.60,-1.60 390.80,-0.80"/>
    </edge>
    <edge id=":B0_12" function="internal">
        <lane id=":B0_12_0" index="0" speed="9.26" length="14.34" shape="394.56,-0.89 394.85,-0.85 398.60,1.40 400.85,5.15 401.60,10.40"/>
    </edge>
    <edge id=":B0_13" function="internal">
        <lane id=":B0_13_0" index="0" speed="3.65" length="3.23" shape="390.80,-0.80 391.20,0.00 390.80,0.80 389.60,1.60"/>
    </edge>
    <edge id=":B1_0" function="internal">
        <lane id=":B1_0_0" index="0" speed="6.51" length="9.03" shape="395.20,410.40 394.85,407.95 393.80,406.20 392.05,405.15 389.60,404.80"/>
    </edge>
    <edge id=":B1_1" function="internal">
        <lane id=":B1_1_0" index="0" speed="13.89" length="20.80" shape="395.20,410.40 395.20,389.60"/>
        <lane id=":B1_1_1" index="1" speed="13.89" length="20.80" shape="398.40,410.40 398.40,389.60"/>
    </edge>
    <edge id=":B1_3" function="internal">
        <lane id=":B1_3_0" index="0" speed="9.26" length="5.01" shape="398.40,410.40 399.11,405.44"/>
    </edge>
    <edge id=":B1_4" function="internal">
        <lane id=":B1_4_0" index="0" speed="3.65" length="1.44" shape="398.40,410.40 399.20,409.20"/>
    </edge>
    <edge id=":B1_20" function="internal">
        <lane id=":B1_20_0" index="0" speed="9.26" length="14.34" shape="399.11,405.44 399.15,405.15 401.40,401.40 405.15,399.15 410.40,398.40"/>
    </edge>
    <edge id=":B1_21" function="internal">
        <lane id=":B1_21_0" index="0" speed="3.65" length="3.23" shape="399.20,409.20 400.00,408.80 400.80,409.20 401.60,410.40"/>
    </edge>
    <edge id=":B1_5" function="internal">
        <lane id=":B1_5_0" index="0" speed="6.51" length="9.03" shape="410.40,404.80 407.95,405.15 406.20,406.20 405.15,407.95 404.80,410.40"/>
    </edge>
    <edge id=":B1_6" function="internal">
        <lane id=":B1_6_0" index="0" speed="13.89" length="20.80" shape="410.40,404.80 389.60,404.80"/>
        <lane id=":B1_6_1" index="1" speed="13.89" length="20.80" shape="410.40,401.60 389.60,401.60"/>
    </edge>
    <edge id=":B1_8" function="internal">
        <lane id=":B1_8_0" index="0" speed="9.26" length="19.35" shape="410.40,401.60 405.15,400.85 401.40,398.60 399.15,394.85 398.40,389.60"/>
    </edge>
    <edge id=":B1_9" function="internal">
        <lane id=":B1_9_0" index="0" speed="3.65" length="4.67" shape="410.40,401.60 409.20,400.80 408.80,400.00 409.20,399.20 410.40,398.40"/>
    </edge>
    <edge id=":B1_10" function="internal">
        <lane id=":B1_10_0" index="0" speed="6.51" length="9.03" shape="404.80,389.60 405.15,392.05 406.20,393.80 407.95,394.85 410.40,395.20"/>
    </edge>
    <edge id=":B1_11" function="internal">
        <lane id=":B1_11_0" index="0" speed="13.89" length="20.80" shape="404.80,389.60 404.80,410.40"/>
        <lane id=":B1_11_1" index="1" speed="13.89" length="20.80" shape="401.60,389.60 401.60,410.40"/>
    </edge>
    <edge id=":B1_13" function="internal">
        <lane id=":B1_13_0" index="0" speed="9.26" length="5.01" shape="401.60,389.60 400.89,394.56"/>
    </edge>
    <edge id=":B1_14" function="internal">
        <lane id=":B1_14_0" index="0" speed="3.65" length="1.44" shape="401.60,389.60 400.80,390.80"/>
    </edge>
    <edge id=":B1_22" function="internal">
        <lane id=":B1_22_0" index="0" speed="9.26" length="14.34" shape="400.89,394.56 400.85,394.85 398.60,398.60 394.85,400.85 389.60,401.60"/>
    </edge>
    <edge id=":B1_23" function="internal">
        <lane id=":B1_23_0" index="0" speed="3.65" length="3.23" shape="400.80,390.80 400.00,391.20 399.20,390.80 398.40,389.60"/>
    </edge>
    <edge id=":B1_15" function="internal">
        <lane id=":B1_15_0" index="0" speed="6.51" length="9.03" shape="389.60,395.20 392.05,394.85 393.80,393.80 394.85,392.05 395.20,389.60"/>
    </edge>
    <edge id=":B1_16" function="internal">
        <lane id=":B1_16_0" index="0" speed="13.89" length="20.80" shape="389.60,395.20 410.40,395.20"/>
        <lane id=":B1_16_1" index="1" speed="13.89" length="20.80" shape="389.60,398.40 410.40,398.40"/>
    </edge>
    <edge id=":B1_18" function="internal">
        <lane id=":B1_18_0" index="0" speed="9.26" length="19.35" shape="389.60,398.40 394.85,399.15 398.60,401.40 400.85,405.15 401.60,410.40"/>
    </edge>
    <edge id=":B1_19" function="internal">
        <lane id=":B1_19_0" index="0" speed="3.65" length="4.67" shape="389.60,398.40 390.80,399.20 391.20,400.00 390.80,400.80 389.60,401.60"/>
    </edge>
    <edge id=":B2_0" function="internal">
        <lane id=":B2_0_0" index="0" speed="6.51" length="9.03" shape="395.20,810.40 394.85,807.95 393.80,806.20 392.05,805.15 389.60,804.80"/>
    </edge>
    <edge id=":B2_1" function="internal">
        <lane id=":B2_1_0" index="0" speed="13.89" length="20.80" shape="395.20,810.40 395.20,789.60"/>
        <lane id=":B2_1_1" index="1" speed="13.89" length="20.80" shape="398.40,810.40 398.40,789.60"/>
    </edge>
    <edge id=":B2_3" function="internal">
        <lane id=":B2_3_0" index="0" speed="9.26" length="5.01" shape="398.40,810.40 399.11,805.44"/>
    </edge>
    <edge id=":B2_4" function="internal">
        <lane id=":B2_4_0" index="0" speed="3.65" length="1.44" shape="398.40,810.40 399.20,809.20"/>
    </edge>
    <edge id=":B2_20" function="internal">
        <lane id=":B2_20_0" index="0" speed="9.26" length="14.34" shape="399.11,805.44 399.15,805.15 401.40,801.40 405.15,799.15 410.40,798.40"/>
    </edge>
    <edge id=":B2_21" function="internal">
        <lane id=":B2_21_0" index="0" speed="3.65" length="3.23" shape="399.20,809.20 400.00,808.80 400.80,809.20 401.60,810.40"/>
    </edge>
    <edge id=":B2_5" function="internal">
        <lane id=":B2_5_0" index="0" speed="6.51" length="9.03" shape="410.40,804.80 407.95,805.15 406.20,806.20 405.15,807.95 404.80,810.40"/>
    </edge>
    <edge id=":B2_6" function="internal">
        <lane id=":B2_6_0" index="0" speed="13.89" length="20.80" shape="410.40,804.80 389.60,804.80"/>
        <lane id=":B2_6_1" index="1" speed="13.89" length="20.80" shape="410.40,801.60 389.60,801.60"/>
    </edge>
    <edge id=":B2_8" function="internal">
        <lane id=":B2_8_0" index="0" speed="9.26" length="19.35" shape="410.40,801.60 405.15,800.85 401.40,798.60 399.15,794.85 398.40,789.60"/>
    </edge>
    <edge id=":B2_9" function="internal">
        <lane id=":B2_9_0" index="0" speed="3.65" length="4.67" shape="410.40,801.60 409.20,800.80 408.80,800.00 409.20,799.20 410.40,798.40"/>
    </edge>
    <edge id=":B2_10" function="internal">
        <lane id=":B2_10_0" index="0" speed="6.51" length="9.03" shape="404.80,789.60 405.15,792.05 406.20,793.80 407.95,794.85 410.40,795.20"/>
    </edge>
    <edge id=":B2_11" function="internal">
        <lane id=":B2_11_0" index="0" speed="13.89" length="20.80" shape="404.80,789.60 404.80,810.40"/>
        <lane id=":B2_11_1" index="1" speed="13.89" length="20.80" shape="401.60,789.60 401.60,810.40"/>
    </edge>
    <edge id=":B2_13" function="internal">
        <lane id=":B2_13_0" index="0" speed="9.26" length="5.01" shape="401.60,789.60 400.89,794.56"/>
    </edge>
    <edge id=":B2_14" function="internal">
        <lane id=":B2_14_0" index="0" speed="3.65" length="1.44" shape="401.60,789.60 400.80,790.80"/>
    </edge>
    <edge id=":B2_22" function="internal">
        <lane id=":B2_22_0" index="0" speed="9.26" length="14.34" shape="400.89,794.56 400.85,794.85 398.60,798.60 394.85,800.85 389.60,801.60"/>
    </edge>
    <edge id=":B2_23" function="internal">
        <lane id=":B2_23_0" index="0" speed="3.65" length="3.23" shape="400.80,790.80 400.00,791.20 399.20,790.80 398.40,789.60"/>
    </edge>
    <edge id=":B2_15" function="internal">
        <lane id=":B2_15_0" index="0" speed="6.51" length="9.03" shape="389.60,795.20 392.05,794.85 393.80,793.80 394.85,792.05 395.20,789.60"/>
    </edge>
    <edge id=":B2_16" function="internal">
        <lane id=":B2_16_0" index="0" speed="13.89" length="20.80" shape="389.60,795.20 410.40,795.20"/>
        <lane id=":B2_16_1" index="1" speed="13.89" length="20.80" shape="389.60,798.40 410.40,798.40"/>
    </edge>
    <edge id=":B2_18" function="internal">
        <lane id=":B2_18_0" index="0" speed="9.26" length="19.35" shape="389.60,798.40 394.85,799.15 398.60,801.40 400.85,805.15 401.60,810.40"/>
    </edge>
    <edge id=":B2_19" function="internal">
        <lane id=":B2_19_0" index="0" speed="3.65" length="4.67" shape="389.60,798.40 390.80,799.20 391.20,800.00 390.80,800.80 389.60,801.60"/>
    </edge>
    <edge id=":B3_0" function="internal">
        <lane id=":B3_0_0" index="0" speed="13.89" length="20.80" shape="410.40,1204.80 389.60,1204.80"/>
        <lane id=":B3_0_1" index="1" speed="13.89" length="20.80" shape="410.40,1201.60 389.60,1201.60"/>
    </edge>
    <edge id=":B3_2" function="internal">
        <lane id=":B3_2_0" index="0" speed="9.26" length="5.01" shape="410.40,1201.60 405.44,1200.89"/>
    </edge>
    <edge id=":B3_3" function="internal">
        <lane id=":B3_3_0" index="0" speed="3.65" length="1.44" shape="410.40,1201.60 409.20,1200.80"/>
    </edge>
    <edge id=":B3_11" function="internal">
        <lane id=":B3_11_0" index="0" speed="9.26" length="14.34" shape="405.44,1200.89 405.15,1200.85 401.40,1198.60 399.15,1194.85 398.40,1189.60"/>
    </edge>
    <edge id=":B3_12" function="internal">
        <lane id=":B3_12_0" index="0" speed="3.65" length="3.23" shape="409.20,1200.80 408.80,1200.00 409.20,1199.20 410.40,1198.40"/>
    </edge>
    <edge id=":B3_4" function="internal">
        <lane id=":B3_4_0" index="0" speed="6.51" length="9.03" shape="404.80,1189.60 405.15,1192.05 406.20,1193.80 407.95,1194.85 410.40,1195.20"/>
    </edge>
    <edge id=":B3_5" function="internal">
        <lane id=":B3_5_0" index="0" speed="9.26" length="19.35" shape="401.60,1189.60 400.85,1194.85 398.60,1198.60 394.85,1200.85 389.60,1201.60"/>
    </edge>
    <edge id=":B3_6" function="internal">
        <lane id=":B3_6_0" index="0" speed="3.65" length="4.67" shape="401.60,1189.60 400.80,1190.80 400.00,1191.20 399.20,1190.80 398.40,1189.60"/>
    </edge>
    <edge id=":B3_7" function="internal">
        <lane id=":B3_7_0" index="0" speed="6.51" length="9.03" shape="389.60,1195.20 392.05,1194.85 393.80,1193.80 394.85,1192.05 395.20,1189.60"/>
    </edge>
    <edge id=":B3_8" function="internal">
        <lane id=":B3_8_0" index="0" speed="13.89" length="20.80" shape="389.60,1195.20 410.40,1195.20"/>
        <lane id=":B3_8_1" index="1" speed="13.89" length="20.80" shape="389.60,1198.40 410.40,1198.40"/>
    </edge>
    <edge id=":B3_10" function="internal">
        <lane id=":B3_10_0" index="0" speed="3.65" length="1.44" shape="389.60,1198.40 390.80,1199.20"/>
    </edge>
    <edge id=":B3_13" function="internal">
        <lane id=":B3_13_0" index="0" speed="3.65" length="3.23" shape="390.80,1199.20 391.20,1200.00 390.80,1200.80 389.60,1201.60"/>
    </edge>
    <edge id=":C0_0" function="internal">
        <lane id=":C0_0_0" index="0" speed="6.51" length="9.03" shape="795.20,10.40 794.85,7.95 793.80,6.20 792.05,5.15 789.60,4.80"/>
    </edge>
    <edge id=":C0_1" function="internal">
        <lane id=":C0_1_0" index="0" speed="9.26" length="19.35" shape="798.40,10.40 799.15,5.15 801.40,1.40 805.15,-0.85 810.40,-1.60"/>
    </edge>
    <edge id=":C0_2" function="internal">
        <lane id=":C0_2_0" index="0" speed="3.65" length="4.67" shape="798.40,10.40 799.20,9.20 800.00,8.80 800.80,9.20 801.60,10.40"/>
    </edge>
    <edge id=":C0_3" function="internal">
        <lane id=":C0_3_0" index="0" speed="6.51" length="9.03" shape="810.40,4.80 807.95,5.15 806.20,6.20 805.15,7.95 804.80,10.40"/>
    </edge>
    <edge id=":C0_4" function="internal">
        <lane id=":C0_4_0" index="0" speed="13.89" length="20.80" shape="810.40,4.80 789.60,4.80"/>
        <lane id=":C0_4_1" index="1" speed="13.89" length="20.80" shape="810.40,1.60 789.60,1.60"/>
    </edge>
    <edge id=":C0_6" function="internal">
        <lane id=":C0_6_0" index="0" speed="3.65" length="1.44" shape="810.40,1.60 809.20,0.80"/>
    </edge>
    <edge id=":C0_11" function="internal">
        <lane id=":C0_11_0" index="0" speed="3.65" length="3.23" shape="809.20,0.80 808.80,0.00 809.20,-0.80 810.40,-1.60"/>
    </edge>
    <edge id=":C0_7" function="internal">
        <lane id=":C0_7_0" index="0" speed="13.89" length="20.80" shape="789.60,-4.80 810.40,-4.80"/>
        <lane id=":C0_7_1" index="1" speed="13.89" length="20.80" shape="789.60,-1.60 810.40,-1.60"/>
    </edge>
    <edge id=":C0_9" function="internal">
        <lane id=":C0_9_0" index="0" speed="9.26" length="5.01" shape="789.60,-1.60 794.56,-0.89"/>
    </edge>
    <edge id=":C0_10" function="internal">
        <lane id=":C0_10_0" index="0" speed="3.65" length="1.44" shape="789.60,-1.60 790.80,-0.80"/>
    </edge>
    <edge id=":C0_12" function="internal">
        <lane id=":C0_12_0" index="0" speed="9.26" length="14.34" shape="794.56,-0.89 794.85,-0.85 798.60,1.40 800.85,5.15 801.60,10.40"/>
    </edge>
    <edge id=":C0_13" function="internal">
        <lane id=":C0_13_0" index="0" speed="3.65" length="3.23" shape="790.80,-0.80 791.20,0.00 790.80,0.80 789.60,1.60"/>
    </edge>
    <edge id=":C1_0" function="internal">
        <lane id=":C1_0_0" index="0" speed="6.51" length="9.03" shape="795.20,410.40 794.85,407.95 793.80,406.20 792.05,405.15 789.60,404.80"/>
    </edge>
    <edge id=":C1_1" function="internal">
        <lane id=":C1_1_0" index="0" speed="13.89" length="20.80" shape="795.20,410.40 795.20,389.60"/>
        <lane id=":C1_1_1" index="1" speed="13.89" length="20.80" shape="798.40,410.40 798.40,389.60"/>
    </edge>
    <edge id=":C1_3" function="internal">
        <lane id=":C1_3_0" index="0" speed="9.26" length="5.01" shape="798.40,410.40 799.11,405.44"/>
    </edge>
    <edge id=":C1_4" function="internal">
        <lane id=":C1_4_0" index="0" speed="3.65" length="1.44" shape="798.40,410.40 799.20,409.20"/>
    </edge>
    <edge id=":C1_20" function="internal">
        <lane id=":C1_20_0" index="0" speed="9.26" length="14.34" shape="799.11,405.44 799.15,405.15 801.40,401.40 805.15,399.15 810.40,398.40"/>
    </edge>
    <edge id=":C1_21" function="internal">
        <lane id=":C1_21_0" index="0" speed="3.65" length="3.23" shape="799.20,409.20 800.00,408.80 800.80,409.20 801.60,410.40"/>
    </edge>
    <edge id=":C1_5" function="internal">
        <lane id=":C1_5_0" index="0" speed="6.51" length="9.03" shape="810.40,404.80 807.95,405.15 806.20,406.20 805.15,407.95 804.80,410.40"/>
    </edge>
    <edge id=":C1_6" function="internal">
        <lane id=":C1_6_0" index="0" speed="13.89" length="20.80" shape="810.40,404.80 789.60,404.80"/>
        <lane id=":C1_6_1" index="1" speed="13.89" length="20.80" shape="810.40,401.60 789.60,401.60"/>
    </edge>
    <edge id=":C1_8" function="internal">
        <lane id=":C1_8_0" index="0" speed="9.26" length="19.35" shape="810.40,401.60 805.15,400.85 801.40,398.60 799.15,394.85 798.40,389.60"/>
    </edge>
    <edge id=":C1_9" function="internal">
        <lane id=":C1_9_0" index="0" speed="3.65" length="4.67" shape="810.40,401.60 809.20,400.80 808.80,400.00 809.20,399.20 810.40,398.40"/>
    </edge>
    <edge id=":C1_10" function="internal">
        <lane id=":C1_10_0" index="0" speed="6.51" length="9.03" shape="804.80,389.60 805.15,392.05 806.20,393.80 807.95,394.85 810.40,395.20"/>
    </edge>
    <edge id=":C1_11" function="internal">
        <lane id=":C1_11_0" index="0" speed="13.89" length="20.80" shape="804.80,389.60 804.80,410.40"/>
        <lane id=":C1_11_1" index="1" speed="13.89" length="20.80" shape="801.60,389.60 801.60,410.40"/>
    </edge>
    <edge id=":C1_13" function="internal">
        <lane id=":C1_13_0" index="0" speed="9.26" length="5.01" shape="801.60,389.60 800.89,394.56"/>
    </edge>
    <edge id=":C1_14" function="internal">
        <lane id=":C1_14_0" index="0" speed="3.65" length="1.44" shape="801.60,389.60 800.80,390.80"/>
    </edge>
    <edge id=":C1_22" function="internal">
        <lane id=":C1_22_0" index="0" speed="9.26" length="14.34" shape="800.89,394.56 800.85,394.85 798.60,398.60 794.85,400.85 789.60,401.60"/>
    </edge>
    <edge id=":C1_23" function="internal">
        <lane id=":C1_23_0" index="0" speed="3.65" length="3.23" shape="800.80,390.80 800.00,391.20 799.20,390.80 798.40,389.60"/>
    </edge>
    <edge id=":C1_15" function="internal">
        <lane id=":C1_15_0" index="0" speed="6.51" length="9.03" shape="789.60,395.20 792.05,394.85 793.80,393.80 794.85,392.05 795.20,389.60"/>
    </edge>
    <edge id=":C1_16" function="internal">
        <lane id=":C1_16_0" index="0" speed="13.89" length="20.80" shape="789.60,395.20 810.40,395.20"/>
        <lane id=":C1_16_1" index="1" speed="13.89" length="20.80" shape="789.60,398.40 810.40,398.40"/>
    </edge>
    <edge id=":C1_18" function="internal">
        <lane id=":C1_18_0" index="0" speed="9.26" length="19.35" shape="789.60,398.40 794.85,399.15 798.60,401.40 800.85,405.15 801.60,410.40"/>
    </edge>
    <edge id=":C1_19" function="internal">
        <lane id=":C1_19_0" index="0" speed="3.65" length="4.67" shape="789.60,398.40 790.80,399.20 791.20,400.00 790.80,400.80 789.60,401.60"/>
    </edge>
    <edge id=":C2_0" function="internal">
        <lane id=":C2_0_0" index="0" speed="6.51" length="9.03" shape="795.20,810.40 794.85,807.95 793.80,806.20 792.05,805.15 789.60,804.80"/>
    </edge>
    <edge id=":C2_1" function="internal">
        <lane id=":C2_1_0" index="0" speed="13.89" length="20.80" shape="795.20,810.40 795.20,789.60"/>
        <lane id=":C2_1_1" index="1" speed="13.89" length="20.80" shape="798.40,810.40 798.40,789.60"/>
    </edge>
    <edge id=":C2_3" function="internal">
        <lane id=":C2_3_0" index="0" speed="9.26" length="5.01" shape="798.40,810.40 799.11,805.44"/>
    </edge>
    <edge id=":C2_4" function="internal">
        <lane id=":C2_4_0" index="0" speed="3.65" length="1.44" shape="798.40,810.40 799.20,809.20"/>
    </edge>
    <edge id=":C2_20" function="internal">
        <lane id=":C2_20_0" index="0" speed="9.26" length="14.34" shape="799.11,805.44 799.15,805.15 801.40,801.40 805.15,799.15 810.40,798.40"/>
    </edge>
    <edge id=":C2_21" function="internal">
        <lane id=":C2_21_0" index="0" speed="3.65" length="3.23" shape="799.20,809.20 800.00,808.80 800.80,809.20 801.60,810.40"/>
    </edge>
    <edge id=":C2_5" function="internal">
        <lane id=":C2_5_0" index="0" speed="6.51" length="9.03" shape="810.40,804.80 807.95,805.15 806.20,806.20 805.15,807.95 804.80,810.40"/>
    </edge>
    <edge id=":C2_6" function="internal">
        <lane id=":C2_6_0" index="0" speed="13.89" length="20.80" shape="810.40,804.80 789.60,804.80"/>
        <lane id=":C2_6_1" index="1" speed="13.89" length="20.80" shape="810.40,801.60 789.60,801.60"/>
    </edge>
    <edge id=":C2_8" function="internal">
        <lane id=":C2_8_0" index="0" speed="9.26" length="19.35" shape="810.40,801.60 805.15,800.85 801.40,798.60 799.15,794.85 798.40,789.60"/>
    </edge>
    <edge id=":C2_9" function="internal">
        <lane id=":C2_9_0" index="0" speed="3.65" length="4.67" shape="810.40,801.60 809.20,800.80 808.80,800.00 809.20,799.20 810.40,798.40"/>
    </edge>
    <edge id=":C2_10" function="internal">
        <lane id=":C2_10_0" index="0" speed="6.51" length="9.03" shape="804.80,789.60 805.15,792.05 806.20,793.80 807.95,794.85 810.40,795.20"/>
    </edge>
    <edge id=":C2_11" function="internal">
        <lane id=":C2_11_0" index="0" speed="13.89" length="20.80" shape="804.80,789.60 804.80,810.40"/>
        <lane id=":C2_11_1" index="1" speed="13.89" length="20.80" shape="801.60,789.60 801.60,810.40"/>
    </edge>
    <edge id=":C2_13" function="internal">
        <lane id=":C2_13_0" index="0" speed="9.26" length="5.01" shape="801.60,789.60 800.89,794.56"/>
    </edge>
    <edge id=":C2_14" function="internal">
        <lane id=":C2_14_0" index="0" speed="3.65" length="1.44" shape="801.60,789.60 800.80,790.80"/>
    </edge>
    <edge id=":C2_22" function="internal">
        <lane id=":C2_22_0" index="0" speed="9.26" length="14.34" shape="800.89,794.56 800.85,794.85 798.60,798.60 794.85,800.85 789.60,801.60"/>
    </edge>
    <edge id=":C2_23" function="internal">
        <lane id=":C2_23_0" index="0" speed="3.65" length="3.23" shape="800.80,790.80 800.00,791.20 799.20,790.80 798.40,789.60"/>
    </edge>
    <edge id=":C2_15" function="internal">