<?xml version="1.0" encoding="UTF-8"?>

<!-- generated on 2024-05-07 21:30:16 by Eclipse SUMO netedit Version 1.19.0
<configuration xmlns:xsi="http://www.w3.org/2001/XMLSchema-instance" xsi:noNamespaceSchemaLocation="http://sumo.dlr.de/xsd/neteditConfiguration.xsd">

    <input>
        <sumocfg-file value="E:\sumo1.19.0\sumo-1.19.0\test\真实路网\map.sumocfg"/>
        <route-files value="E:\sumo1.19.0\sumo-1.19.0\test\真实路网\map.rou.xml"/>
        <sumo-net-file value="E:\sumo1.19.0\sumo-1.19.0\test\真实路网\map.net.xml"/>
    </input>

    <output>
        <output-file value="E:\sumo1.19.0\sumo-1.19.0\test\真实路网\map.net.xml"/>
    </output>

    <processing>
        <geometry.min-radius.fix.railways value="false"/>
        <geometry.max-grade.fix value="false"/>
        <offset.disable-normalization value="true"/>
        <lefthand value="0"/>
    </processing>

    <junctions>
        <no-turnarounds value="true"/>
        <junctions.corner-detail value="5"/>
        <junctions.limit-turn-speed value="-1.00"/>
        <rectangular-lane-cut value="0"/>
    </junctions>

    <pedestrian>
        <walkingareas value="0"/>
    </pedestrian>

</configuration>
-->

<net version="1.16" junctionCornerDetail="5" xmlns:xsi="http://www.w3.org/2001/XMLSchema-instance" xsi:noNamespaceSchemaLocation="http://sumo.dlr.de/xsd/net_file.xsd">

    <location netOffset="0,0" convBoundary="5000.00,5000.00,12000,12000" origBoundary="108.834098,34.146962,109.020210,34.312522" projParameter="+proj=utm +zone=49 +ellps=WGS84 +datum=WGS84 +units=m +no_defs"/>

    <type id="highway.cycleway" priority="1" numLanes="1" speed="5.56" allow="bicycle" oneway="0" width="2.00"/>
    <type id="highway.footway" priority="1" numLanes="1" speed="2.78" allow="pedestrian" oneway="1" width="2.00"/>
    <type id="highway.living_street" priority="2" numLanes="1" speed="2.78" disallow="tram rail_urban rail rail_electric ship" oneway="0"/>
    <type id="highway.pedestrian" priority="1" numLanes="1" speed="2.78" allow="pedestrian" oneway="1" width="2.00"/>
    <type id="highway.primary" priority="12" numLanes="2" speed="27.78" disallow="tram rail_urban rail rail_electric ship" oneway="0"/>
    <type id="highway.residential" priority="3" numLanes="1" speed="13.89" disallow="tram rail_urban rail rail_electric ship" oneway="0"/>
    <type id="highway.secondary" priority="11" numLanes="1" speed="27.78" disallow="tram rail_urban rail rail_electric ship" oneway="0"/>
    <type id="highway.secondary_link" priority="6" numLanes="1" speed="22.22" disallow="tram rail_urban rail rail_electric ship" oneway="0"/>
    <type id="highway.service" priority="1" numLanes="1" speed="5.56" allow="pedestrian delivery bicycle" oneway="0"/>
    <type id="highway.steps" priority="1" numLanes="1" speed="1.39" allow="pedestrian" oneway="1" width="2.00"/>
    <type id="highway.tertiary" priority="10" numLanes="1" speed="22.22" disallow="tram rail_urban rail rail_electric ship" oneway="0"/>
    <type id="highway.tertiary_link" priority="5" numLanes="1" speed="22.22" disallow="tram rail_urban rail rail_electric ship" oneway="0"/>
    <type id="highway.trunk" priority="13" numLanes="2" speed="27.78" disallow="pedestrian bicycle tram rail_urban rail rail_electric ship" oneway="0"/>
    <type id="highway.trunk_link" priority="8" numLanes="1" speed="22.22" disallow="pedestrian bicycle tram rail_urban rail rail_electric ship" oneway="0"/>
    <type id="highway.unclassified" priority="4" numLanes="1" speed="13.89" disallow="tram rail_urban rail rail_electric ship" oneway="0"/>
    <type id="railway.subway" priority="18" numLanes="1" speed="27.78" allow="rail_urban" oneway="1"/>

    <edge id=":10110716629_0" function="internal">
        <lane id=":10110716629_0_0" index="0" allow="bicycle" speed="16.67" length="4.13" width="2.00" shape="6407.00,8815.57 6407.52,8816.60 6408.22,8817.16 6409.12,8817.24 6410.21,8816.85"/>
    </edge>
    <edge id=":10110716629_1" function="internal">
        <lane id=":10110716629_1_0" index="0" allow="bicycle" speed="5.56" length="2.92" width="2.00" shape="6407.00,8815.57 6406.76,8816.43 6406.36,8816.83 6405.81,8816.75 6405.10,8816.19"/>
    </edge>
    <edge id=":10110716629_2" function="internal">
        <lane id=":10110716629_2_0" index="0" allow="bicycle" speed="16.67" length="4.55" width="2.00" shape="6403.99,8820.19 6404.84,8819.53 6405.30,8818.64 6405.39,8817.53 6405.10,8816.19"/>
    </edge>
    <edge id=":10110716629_3" function="internal">
        <lane id=":10110716629_3_0" index="0" disallow="tram rail_urban rail rail_electric rail_fast ship" speed="27.78" length="7.06" shape="6404.28,8820.72 6410.50,8817.37"/>
    </edge>
    <edge id=":10110716640_0" function="internal">
        <lane id=":10110716640_0_0" index="0" allow="bicycle" speed="5.56" length="1.41" width="2.00" shape="6431.84,8807.03 6430.49,8807.44"/>
    </edge>
    <edge id=":10110716640_1" function="internal">
        <lane id=":10110716640_1_0" index="0" allow="bicycle" speed="5.56" length="0.32" width="2.00" shape="6431.84,8807.03 6431.52,8807.01"/>
    </edge>
    <edge id=":10110716640_2" function="internal">
        <lane id=":10110716640_2_0" index="0" allow="bicycle" speed="16.67" length="0.80" width="2.00" shape="6431.84,8807.03 6431.42,8806.35"/>
    </edge>
    <edge id=":10110716640_9" function="internal">
        <lane id=":10110716640_9_0" index="0" allow="bicycle" speed="5.56" length="6.38" width="2.00" shape="6430.49,8807.44 6428.79,8807.42 6426.73,8806.97 6424.32,8806.08"/>
    </edge>
    <edge id=":10110716640_10" function="internal">
        <lane id=":10110716640_10_0" index="0" allow="bicycle" speed="5.56" length="2.60" width="2.00" shape="6431.52,8807.01 6430.94,8806.98 6430.47,8806.68 6430.43,8806.12 6430.82,8805.31"/>
    </edge>
    <edge id=":10110716640_11" function="internal">
        <lane id=":10110716640_11_0" index="0" allow="bicycle" speed="16.67" length="0.80" width="2.00" shape="6431.42,8806.35 6431.01,8805.66"/>
    </edge>
    <edge id=":10110716640_3" function="internal">
        <lane id=":10110716640_3_0" index="0" allow="bicycle" speed="5.56" length="5.95" width="2.00" shape="6425.10,8804.24 6427.07,8805.00 6428.68,8805.42 6429.93,8805.53 6430.82,8805.31"/>
    </edge>
    <edge id=":10110716640_4" function="internal">
        <lane id=":10110716640_4_0" index="0" allow="bicycle" speed="16.67" length="6.17" width="2.00" shape="6425.10,8804.24 6427.26,8805.09 6428.96,8805.61 6430.21,8805.80 6431.01,8805.66"/>
    </edge>
    <edge id=":10110716640_5" function="internal">
        <lane id=":10110716640_5_0" index="0" allow="bicycle" speed="5.56" length="2.92" width="2.00" shape="6425.10,8804.24 6425.60,8805.00 6425.63,8805.56 6425.20,8805.92 6424.32,8806.08"/>
    </edge>
    <edge id=":10110716640_6" function="internal">
        <lane id=":10110716640_6_0" index="0" allow="bicycle" speed="16.67" length="4.62" width="2.00" shape="6424.46,8809.18 6425.63,8808.35 6426.00,8807.56 6425.56,8806.80 6424.32,8806.08"/>
    </edge>
    <edge id=":10110716640_7" function="internal">
        <lane id=":10110716640_7_0" index="0" allow="bicycle" speed="16.67" length="7.45" width="2.00" shape="6424.46,8809.18 6430.82,8805.31"/>
    </edge>
    <edge id=":10110716640_8" function="internal">
        <lane id=":10110716640_8_0" index="0" disallow="tram rail_urban rail rail_electric rail_fast ship" speed="27.78" length="7.44" shape="6424.74,8809.71 6431.29,8806.19"/>
    </edge>
    <edge id=":10242550551_0" function="internal">
        <lane id=":10242550551_0_0" index="0" disallow="tram rail_urban rail rail_electric rail_fast ship" speed="22.22" length="5.13" shape="8533.31,8407.05 8533.19,8401.92"/>
    </edge>
    <edge id=":10242550551_1" function="internal">
        <lane id=":10242550551_1_0" index="0" disallow="tram rail_urban rail rail_electric rail_fast ship" speed="22.22" length="5.13" shape="8536.39,8401.85 8536.51,8406.98"/>
    </edge>
    <edge id=":10242550554_0" function="internal">
        <lane id=":10242550554_0_0" index="0" allow="pedestrian delivery bicycle" speed="5.56" length="4.67" shape="7571.16,8563.44 7571.47,8562.03 7572.07,8561.37 7572.96,8561.45 7574.14,8562.28"/>
    </edge>
    <edge id=":10242550557_0" function="internal">
        <lane id=":10242550557_0_0" index="0" allow="pedestrian delivery bicycle" speed="5.56" length="5.93" shape="7590.27,8612.78 7588.19,8607.23"/>
    </edge>
    <edge id=":10242550557_1" function="internal">
        <lane id=":10242550557_1_0" index="0" allow="pedestrian delivery bicycle" speed="5.56" length="1.44" shape="7590.27,8612.78 7590.60,8611.37"/>
    </edge>
    <edge id=":10242550557_4" function="internal">
        <lane id=":10242550557_4_0" index="0" allow="pedestrian delivery bicycle" speed="5.56" length="3.23" shape="7590.60,8611.37 7591.21,8610.72 7592.10,8610.81 7593.27,8611.66"/>
    </edge>
    <edge id=":10242550557_2" function="internal">
        <lane id=":10242550557_2_0" index="0" allow="pedestrian delivery bicycle" speed="5.56" length="5.93" shape="7591.19,8606.11 7593.27,8611.66"/>
    </edge>
    <edge id=":10242550557_3" function="internal">
        <lane id=":10242550557_3_0" index="0" allow="pedestrian delivery bicycle" speed="5.56" length="1.44" shape="7591.19,8606.11 7590.86,8607.51"/>
    </edge>
    <edge id=":10242550557_5" function="internal">
        <lane id=":10242550557_5_0" index="0" allow="pedestrian delivery bicycle" speed="5.56" length="3.23" shape="7590.86,8607.51 7590.25,8608.17 7589.36,8608.07 7588.19,8607.23"/>
    </edge>
    <edge id=":10242550563_0" function="internal">
        <lane id=":10242550563_0_0" index="0" disallow="tram rail_urban rail rail_electric rail_fast ship" speed="13.89" length="5.00" shape="7425.79,9287.14 7421.42,9289.57"/>
    </edge>
    <edge id=":10242550563_1" function="internal">
        <lane id=":10242550563_1_0" index="0" disallow="tram rail_urban rail rail_electric rail_fast ship" speed="13.89" length="5.00" shape="7419.86,9286.78 7424.23,9284.35"/>
    </edge>
    <edge id=":10242550565_0" function="internal">
        <lane id=":10242550565_0_0" index="0" disallow="tram rail_urban rail rail_electric rail_fast ship" speed="13.89" length="4.24" shape="7362.62,9349.94 7360.54,9346.25"/>
    </edge>
    <edge id=":10242550565_1" function="internal">
        <lane id=":10242550565_1_0" index="0" disallow="tram rail_urban rail rail_electric rail_fast ship" speed="13.89" length="4.24" shape="7363.32,9344.68 7365.41,9348.37"/>
    </edge>
    <edge id=":10242563021_0" function="internal">
        <lane id=":10242563021_0_0" index="0" disallow="tram rail_urban rail rail_electric rail_fast ship" speed="13.89" length="42.99" shape="7592.74,9768.75 7626.25,9741.82"/>
    </edge>
    <edge id=":10242563021_1" function="internal">
        <lane id=":10242563021_1_0" index="0" disallow="pedestrian bicycle tram rail_urban rail rail_electric rail_fast ship" speed="18.05" length="42.99" shape="7592.74,9768.75 7628.22,9744.48"/>
    </edge>
    <edge id=":10242563028_0" function="internal">
        <lane id=":10242563028_0_0" index="0" allow="pedestrian delivery bicycle" speed="5.56" length="7.17" shape="8042.45,9773.67 8036.06,9776.93"/>
    </edge>
    <edge id=":10242563028_1" function="internal">
        <lane id=":10242563028_1_0" index="0" allow="pedestrian delivery bicycle" speed="5.56" length="1.44" shape="8042.45,9773.67 8041.01,9773.50"/>
    </edge>
    <edge id=":10242563028_4" function="internal">
        <lane id=":10242563028_4_0" index="0" allow="pedestrian delivery bicycle" speed="5.56" length="3.23" shape="8041.01,9773.50 8040.29,9772.97 8040.29,9772.08 8040.99,9770.82"/>
    </edge>
    <edge id=":10242563028_2" function="internal">
        <lane id=":10242563028_2_0" index="0" allow="pedestrian delivery bicycle" speed="5.56" length="7.17" shape="8034.61,9774.08 8040.99,9770.82"/>
    </edge>
    <edge id=":10242563028_3" function="internal">
        <lane id=":10242563028_3_0" index="0" allow="pedestrian delivery bicycle" speed="5.56" length="1.44" shape="8034.61,9774.08 8036.04,9774.24"/>
    </edge>
    <edge id=":10242563028_5" function="internal">
        <lane id=":10242563028_5_0" index="0" allow="pedestrian delivery bicycle" speed="5.56" length="3.23" shape="8036.04,9774.24 8036.76,9774.77 8036.77,9775.67 8036.06,9776.93"/>
    </edge>
    <edge id=":11230545611_0" function="internal">
        <lane id=":11230545611_0_0" index="0" allow="rail_urban" speed="27.78" length="8.61" shape="7369.93,8764.09 7368.06,8765.84 7366.80,8767.07 7365.44,8768.17 7363.27,8769.50"/>
    </edge>
    <edge id=":11230545612_0" function="internal">
        <lane id=":11230545612_0_0" index="0" allow="rail_urban" speed="27.78" length="25.28" shape="7286.25,8812.56 7264.08,8824.71"/>
    </edge>
    <edge id=":11230545612_1" function="internal">
        <lane id=":11230545612_1_0" index="0" allow="rail_urban" speed="27.78" length="14.97" shape="7286.25,8812.56 7282.89,8814.19 7279.41,8815.54 7275.86,8816.76 7272.32,8818.01"/>
    </edge>
    <edge id=":1557695592_0" function="internal">
        <lane id=":1557695592_0_0" index="0" disallow="pedestrian bicycle tram rail_urban rail rail_electric rail_fast ship" speed="22.22" length="24.04" shape="7636.77,9738.68 7656.72,9725.27"/>
    </edge>
    <edge id=":1557695592_1" function="internal">
        <lane id=":1557695592_1_0" index="0" disallow="pedestrian bicycle tram rail_urban rail rail_electric rail_fast ship" speed="22.22" length="19.44" shape="7642.26,9738.22 7645.45,9735.11 7649.24,9731.40 7653.15,9727.87 7656.72,9725.27"/>
    </edge>
    <edge id=":1557695598_0" function="internal">
        <lane id=":1557695598_0_0" index="0" disallow="tram rail_urban rail rail_electric rail_fast ship" speed="22.22" length="14.39" shape="8451.25,9598.58 8451.12,9584.19"/>
    </edge>
    <edge id=":1557695598_1" function="internal">
        <lane id=":1557695598_1_0" index="0" disallow="tram rail_urban rail rail_electric rail_fast ship" speed="22.22" length="4.04" shape="8451.25,9598.58 8451.77,9594.75 8451.85,9594.60"/>
    </edge>
    <edge id=":1557695598_2" function="internal">
        <lane id=":1557695598_2_0" index="0" disallow="tram rail_urban rail rail_electric rail_fast ship" speed="22.22" length="1.44" shape="8451.25,9598.58 8452.04,9597.37"/>
    </edge>
    <edge id=":1557695598_9" function="internal">
        <lane id=":1557695598_9_0" index="0" disallow="tram rail_urban rail rail_electric rail_fast ship" speed="22.22" length="10.17" shape="8451.85,9594.60 8453.40,9591.98 8456.14,9590.28 8459.99,9589.66"/>
    </edge>
    <edge id=":1557695598_10" function="internal">
        <lane id=":1557695598_10_0" index="0" disallow="tram rail_urban rail rail_electric rail_fast ship" speed="22.22" length="3.23" shape="8452.04,9597.37 8452.84,9596.97 8453.64,9597.36 8454.45,9598.55"/>
    </edge>
    <edge id=":1557695598_3" function="internal">
        <lane id=":1557695598_3_0" index="0" disallow="tram rail_urban rail rail_electric rail_fast ship" speed="22.22" length="9.09" shape="8460.06,9592.85 8457.59,9593.26 8455.83,9594.34 8454.78,9596.11 8454.45,9598.55"/>
    </edge>
    <edge id=":1557695598_4" function="internal">
        <lane id=":1557695598_4_0" index="0" disallow="tram rail_urban rail rail_electric rail_fast ship" speed="22.22" length="14.23" shape="8460.06,9592.85 8456.18,9592.38 8453.40,9590.78 8451.71,9588.05 8451.12,9584.19"/>
    </edge>
    <edge id=":1557695598_5" function="internal">
        <lane id=":1557695598_5_0" index="0" disallow="tram rail_urban rail rail_electric rail_fast ship" speed="22.22" length="4.67" shape="8460.06,9592.85 8458.84,9592.08 8458.42,9591.29 8458.81,9590.48 8459.99,9589.66"/>
    </edge>
    <edge id=":1557695598_6" function="internal">
        <lane id=":1557695598_6_0" index="0" disallow="tram rail_urban rail rail_electric rail_fast ship" speed="22.22" length="9.03" shape="8454.32,9584.16 8454.69,9586.61 8455.76,9588.34 8457.53,9589.36 8459.99,9589.66"/>
    </edge>
    <edge id=":1557695598_7" function="internal">
        <lane id=":1557695598_7_0" index="0" disallow="tram rail_urban rail rail_electric rail_fast ship" speed="22.22" length="14.40" shape="8454.32,9584.16 8454.45,9598.55"/>
    </edge>
    <edge id=":1557695598_8" function="internal">
        <lane id=":1557695598_8_0" index="0" disallow="tram rail_urban rail rail_electric rail_fast ship" speed="22.22" length="1.44" shape="8454.32,9584.16 8453.53,9585.37"/>
    </edge>
    <edge id=":1557695598_11" function="internal">
        <lane id=":1557695598_11_0" index="0" disallow="tram rail_urban rail rail_electric rail_fast ship" speed="22.22" length="3.23" shape="8453.53,9585.37 8452.73,9585.77 8451.93,9585.38 8451.12,9584.19"/>
    </edge>
    <edge id=":1557695618_0" function="internal">
        <lane id=":1557695618_0_0" index="0" disallow="tram rail_urban rail rail_electric rail_fast ship" speed="22.22" length="9.60" shape="8453.27,9836.43 8453.15,9826.83"/>
    </edge>
    <edge id=":1557695618_1" function="internal">
        <lane id=":1557695618_1_0" index="0" disallow="tram rail_urban rail rail_electric rail_fast ship" speed="22.22" length="1.82" shape="8453.27,9836.43 8453.79,9834.68"/>
    </edge>
    <edge id=":1557695618_2" function="internal">
        <lane id=":1557695618_2_0" index="0" disallow="tram rail_urban rail rail_electric rail_fast ship" speed="22.22" length="1.44" shape="8453.27,9836.43 8454.05,9835.21"/>
    </edge>
    <edge id=":1557695618_9" function="internal">
        <lane id=":1557695618_9_0" index="0" disallow="tram rail_urban rail rail_electric rail_fast ship" speed="22.22" length="8.77" shape="8453.79,9834.68 8455.42,9833.42 8458.16,9832.64 8462.01,9832.33"/>
    </edge>
    <edge id=":1557695618_10" function="internal">
        <lane id=":1557695618_10_0" index="0" disallow="tram rail_urban rail rail_electric rail_fast ship" speed="22.22" length="3.23" shape="8454.05,9835.21 8454.84,9834.80 8455.65,9835.18 8456.47,9836.37"/>
    </edge>
    <edge id=":1557695618_3" function="internal">
        <lane id=":1557695618_3_0" index="0" disallow="tram rail_urban rail rail_electric rail_fast ship" speed="22.22" length="9.03" shape="8456.35,9826.80 8456.72,9829.25 8457.79,9830.99 8459.55,9832.02 8462.01,9832.33"/>
    </edge>
    <edge id=":1557695618_4" function="internal">
        <lane id=":1557695618_4_0" index="0" disallow="tram rail_urban rail rail_electric rail_fast ship" speed="22.22" length="9.56" shape="8456.35,9826.80 8456.47,9836.37"/>
    </edge>
    <edge id=":1557695618_5" function="internal">
        <lane id=":1557695618_5_0" index="0" disallow="tram rail_urban rail rail_electric rail_fast ship" speed="22.22" length="1.44" shape="8456.35,9826.80 8455.56,9828.01"/>
    </edge>
    <edge id=":1557695618_11" function="internal">
        <lane id=":1557695618_11_0" index="0" disallow="tram rail_urban rail rail_electric rail_fast ship" speed="22.22" length="3.23" shape="8455.56,9828.01 8454.77,9828.42 8453.96,9828.02 8453.15,9826.83"/>
    </edge>
    <edge id=":1557695618_6" function="internal">
        <lane id=":1557695618_6_0" index="0" disallow="tram rail_urban rail rail_electric rail_fast ship" speed="22.22" length="9.10" shape="8447.60,9832.59 8450.05,9832.19 8451.79,9831.09 8452.82,9829.31 8453.15,9826.83"/>
    </edge>
    <edge id=":1557695618_7" function="internal">
        <lane id=":1557695618_7_0" index="0" disallow="tram rail_urban rail rail_electric rail_fast ship" speed="22.22" length="14.42" shape="8447.60,9832.59 8462.01,9832.33"/>
    </edge>
    <edge id=":1557695618_8" function="internal">
        <lane id=":1557695618_8_0" index="0" disallow="tram rail_urban rail rail_electric rail_fast ship" speed="22.22" length="10.58" shape="8447.60,9832.59 8451.45,9832.76 8454.22,9833.44 8455.89,9834.65 8456.47,9836.37"/>
    </edge>
    <edge id=":1557695732_0" function="internal">
        <lane id=":1557695732_0_0" index="0" disallow="tram rail_urban rail rail_electric rail_fast ship" speed="27.78" length="9.43" shape="8812.09,9578.76 8812.38,9588.21"/>
        <lane id=":1557695732_0_1" index="1" disallow="tram rail_urban rail rail_electric rail_fast ship" speed="27.78" length="9.43" shape="8808.89,9578.87 8809.18,9588.30"/>
        <lane id=":1557695732_0_2" index="2" disallow="tram rail_urban rail rail_electric rail_fast ship" speed="27.78" length="9.43" shape="8805.69,9578.98 8805.98,9588.39"/>
    </edge>
    <edge id=":1557695732_3" function="internal">
        <lane id=":1557695732_3_0" index="0" disallow="tram rail_urban rail rail_electric rail_fast ship" speed="25.00" length="7.29" shape="8805.69,9578.98 8805.64,9581.74 8805.26,9583.72 8804.56,9584.93 8803.53,9585.36"/>
    </edge>
    <edge id=":1557695732_4" function="internal">
        <lane id=":1557695732_4_0" index="0" disallow="tram rail_urban rail rail_electric rail_fast ship" speed="25.00" length="9.61" shape="8803.42,9582.16 8805.87,9582.47 8807.65,9583.60 8808.75,9585.54 8809.18,9588.30"/>
        <lane id=":1557695732_4_1" index="1" disallow="tram rail_urban rail rail_electric rail_fast ship" speed="25.00" length="7.30" shape="8803.42,9582.16 8804.47,9582.52 8805.25,9583.68 8805.76,9585.63 8805.98,9588.39"/>
    </edge>
    <edge id=":1557695732_6" function="internal">
        <lane id=":1557695732_6_0" index="0" disallow="tram rail_urban rail rail_electric rail_fast ship" speed="22.22" length="4.67" shape="8803.42,9582.16 8804.64,9582.92 8805.07,9583.70 8804.70,9584.52 8803.53,9585.36"/>
    </edge>
    <edge id=":1557695842_0" function="internal">
        <lane id=":1557695842_0_0" index="0" disallow="tram rail_urban rail rail_electric rail_fast ship" speed="13.89" length="21.36" shape="6690.62,9444.33 6680.07,9425.76"/>
    </edge>
    <edge id=":1557695842_1" function="internal">
        <lane id=":1557695842_1_0" index="0" disallow="tram rail_urban rail rail_electric rail_fast ship" speed="13.89" length="3.73" shape="6690.62,9444.33 6689.43,9440.79"/>
    </edge>
    <edge id=":1557695842_2" function="internal">
        <lane id=":1557695842_2_0" index="0" disallow="tram rail_urban rail rail_electric rail_fast ship" speed="13.89" length="1.44" shape="6690.62,9444.33 6690.70,9442.89"/>
    </edge>
    <edge id=":1557695842_9" function="internal">
        <lane id=":1557695842_9_0" index="0" disallow="tram rail_urban rail rail_electric rail_fast ship" speed="13.89" length="18.05" shape="6689.43,9440.79 6689.12,9439.86 6688.27,9433.86 6687.88,9427.73 6687.77,9422.87"/>
    </edge>
    <edge id=":1557695842_10" function="internal">
        <lane id=":1557695842_10_0" index="0" disallow="tram rail_urban rail rail_electric rail_fast ship" speed="13.89" length="3.23" shape="6690.70,9442.89 6691.19,9442.14 6692.09,9442.09 6693.38,9442.72"/>
    </edge>
    <edge id=":1557695842_3" function="internal">
        <lane id=":1557695842_3_0" index="0" disallow="tram rail_urban rail rail_electric rail_fast ship" speed="13.89" length="20.17" shape="6690.97,9422.83 6691.01,9427.44 6691.25,9433.03 6691.95,9438.49 6693.38,9442.72"/>
    </edge>
    <edge id=":1557695842_4" function="internal">
        <lane id=":1557695842_4_0" index="0" disallow="tram rail_urban rail rail_electric rail_fast ship" speed="13.89" length="15.38" shape="6690.97,9422.83 6689.73,9426.70 6686.70,9428.70 6683.08,9428.49 6680.07,9425.76"/>
    </edge>
    <edge id=":1557695842_5" function="internal">
        <lane id=":1557695842_5_0" index="0" disallow="tram rail_urban rail rail_electric rail_fast ship" speed="13.89" length="4.67" shape="6690.97,9422.83 6690.18,9424.04 6689.39,9424.45 6688.58,9424.06 6687.77,9422.87"/>
    </edge>
    <edge id=":1557695842_6" function="internal">
        <lane id=":1557695842_6_0" index="0" disallow="tram rail_urban rail rail_electric rail_fast ship" speed="13.89" length="11.42" shape="6682.86,9424.19 6685.05,9427.45 6686.60,9428.32 6687.50,9426.79 6687.77,9422.87"/>
    </edge>
    <edge id=":1557695842_7" function="internal">
        <lane id=":1557695842_7_0" index="0" disallow="tram rail_urban rail rail_electric rail_fast ship" speed="13.89" length="21.31" shape="6682.86,9424.19 6693.38,9442.72"/>
    </edge>
    <edge id=":1557695842_8" function="internal">
        <lane id=":1557695842_8_0" index="0" disallow="tram rail_urban rail rail_electric rail_fast ship" speed="13.89" length="1.44" shape="6682.86,9424.19 6682.75,9425.63"/>
    </edge>
    <edge id=":1557695842_11" function="internal">
        <lane id=":1557695842_11_0" index="0" disallow="tram rail_urban rail rail_electric rail_fast ship" speed="13.89" length="3.23" shape="6682.75,9425.63 6682.25,9426.37 6681.35,9426.41 6680.07,9425.76"/>
    </edge>
    <edge id=":1557701146_0" function="internal">
        <lane id=":1557701146_0_0" index="0" disallow="tram rail_urban rail rail_electric rail_fast ship" speed="22.22" length="14.32" shape="6765.75,9555.80 6753.39,9563.03"/>
    </edge>
    <edge id=":1557701146_1" function="internal">
        <lane id=":1557701146_1_0" index="0" disallow="tram rail_urban rail rail_electric rail_fast ship" speed="18.05" length="4.02" shape="6765.75,9555.80 6762.15,9557.25 6762.01,9557.25"/>
    </edge>
    <edge id=":1557701146_2" function="internal">
        <lane id=":1557701146_2_0" index="0" disallow="tram rail_urban rail rail_electric rail_fast ship" speed="22.22" length="1.44" shape="6765.75,9555.80 6764.31,9555.71"/>
    </edge>
    <edge id=":1557701146_9" function="internal">
        <lane id=":1557701146_9_0" index="0" disallow="tram rail_urban rail rail_electric rail_fast ship" speed="18.05" length="10.13" shape="6762.01,9557.25 6758.95,9557.20 6756.15,9555.66 6753.74,9552.62"/>
    </edge>
    <edge id=":1557701146_10" function="internal">
        <lane id=":1557701146_10_0" index="0" disallow="tram rail_urban rail rail_electric rail_fast ship" speed="22.22" length="3.23" shape="6764.31,9555.71 6763.57,9555.22 6763.51,9554.33 6764.15,9553.03"/>
    </edge>
    <edge id=":1557701146_3" function="internal">
        <lane id=":1557701146_3_0" index="0" disallow="tram rail_urban rail rail_electric rail_fast ship" speed="18.05" length="9.01" shape="6756.51,9551.01 6758.04,9552.94 6759.82,9553.92 6761.86,9553.95 6764.15,9553.03"/>
    </edge>
    <edge id=":1557701146_4" function="internal">
        <lane id=":1557701146_4_0" index="0" disallow="tram rail_urban rail rail_electric rail_fast ship" speed="18.05" length="14.20" shape="6756.51,9551.01 6758.00,9554.65 6757.98,9557.87 6756.44,9560.66 6753.39,9563.03"/>
    </edge>
    <edge id=":1557701146_5" function="internal">
        <lane id=":1557701146_5_0" index="0" disallow="tram rail_urban rail rail_electric rail_fast ship" speed="13.89" length="4.67" shape="6756.51,9551.01 6756.42,9552.45 6755.93,9553.19 6755.04,9553.25 6753.74,9552.62"/>
    </edge>
    <edge id=":1557701146_6" function="internal">
        <lane id=":1557701146_6_0" index="0" disallow="tram rail_urban rail rail_electric rail_fast ship" speed="18.05" length="9.05" shape="6751.76,9560.28 6753.70,9558.77 6754.68,9556.99 6754.69,9554.94 6753.74,9552.62"/>
    </edge>
    <edge id=":1557701146_7" function="internal">
        <lane id=":1557701146_7_0" index="0" disallow="tram rail_urban rail rail_electric rail_fast ship" speed="22.22" length="14.35" shape="6751.76,9560.28 6764.15,9553.03"/>
    </edge>
    <edge id=":1557701146_8" function="internal">
        <lane id=":1557701146_8_0" index="0" disallow="tram rail_urban rail rail_electric rail_fast ship" speed="22.22" length="1.44" shape="6751.76,9560.28 6753.20,9560.36"/>
    </edge>
    <edge id=":1557701146_11" function="internal">
        <lane id=":1557701146_11_0" index="0" disallow="tram rail_urban rail rail_electric rail_fast ship" speed="22.22" length="3.23" shape="6753.20,9560.36 6753.95,9560.84 6754.02,9561.73 6753.39,9563.03"/>
    </edge>
    <edge id=":1620274399_0" function="internal">
        <lane id=":1620274399_0_0" index="0" disallow="tram rail_urban rail rail_electric rail_fast ship" speed="19.44" length="0.39" shape="5929.82,6494.01 5930.23,6494.55"/>
        <lane id=":1620274399_0_1" index="1" disallow="tram rail_urban rail rail_electric rail_fast ship" speed="19.44" length="0.39" shape="5927.35,6496.04 5927.64,6496.42"/>
        <lane id=":1620274399_0_2" index="2" disallow="tram rail_urban rail rail_electric rail_fast ship" speed="19.44" length="0.39" shape="5924.87,6498.06 5925.05,6498.29"/>
        <lane id=":1620274399_0_3" index="3" disallow="tram rail_urban rail rail_electric rail_fast ship" speed="19.44" length="0.39" shape="5922.39,6500.09 5922.45,6500.17"/>
    </edge>
    <edge id=":1626473058_0" function="internal">
        <lane id=":1626473058_0_0" index="0" disallow="tram rail_urban rail rail_electric rail_fast ship" speed="22.22" length="6.39" shape="8102.87,9825.67 8104.56,9826.54 8105.74,9827.08 8106.94,9827.56 8108.71,9828.24"/>
    </edge>
    <edge id=":1626473058_1" function="internal">
        <lane id=":1626473058_1_0" index="0" disallow="tram rail_urban rail rail_electric rail_fast ship" speed="22.22" length="5.86" shape="8102.87,9825.67 8103.81,9826.41 8104.52,9827.51 8104.99,9828.96 8105.22,9830.77"/>
    </edge>
    <edge id=":1626473067_0" function="internal">
        <lane id=":1626473067_0_0" index="0" allow="pedestrian delivery bicycle" speed="13.89" length="9.81" shape="8028.35,9780.86 8026.14,9782.45 8025.61,9784.09 8026.75,9785.79 8029.57,9787.55"/>
    </edge>
    <edge id=":1626473067_1" function="internal">