<?xml version="1.0" encoding="UTF-8"?>

<!-- generated on 2024-05-07 21:30:17 by Eclipse SUMO netedit Version 1.19.0
-->

<routes>
	<!-- vTypes -->
	<!-- AV -->
    <vType id="vtype0" carFollowModel="ACC"/>
    <!-- CAV -->
	<vType id="vtype1" carFollowModel="CACC"/>
	<!-- MV -->
	<vType id="vtype2" carFollowModel="IDM"/>
    <!-- Vehicles, persons and containers (sorted by depart) -->
    
    <flow begin="0" end="10800" id="flow1" number="300" type="vtype0">
    	<route edges="-988471124#2 988471124#2 -988471124#2 -988471124#1 -988471124#0 973588631#0 -55696757#5 -142320579 142320579 -55696757#4 -55696757#3 -55696757#2 28506885 335527377#2 335527376#0 988471122#0 988471122#1 988471122#2 162532761#6 162532933 381473319#1 381473319#2 988853730#0 988853730#1 988853730#2 988853730#3 55696766#4 988853729#0 763981339#3 988853730#3 55696766#4 988853729#0 763981339#3 988853730#3 55696766#4 55696766#5 55696746#1 55696746#2 55696746#3 55696746#4 -55696746#4 763981347#1 245404523#0 -245404523#0 245404523#0 162532773#0 -162532773#0 245404523#1 162532763#1 162532789#0 -162532773#0 162532773#0 -162532773#0 245404523#1 -162532763#0 -55696746#2 -55696746#1 -55696746#0 55696746#0 55696746#1 55696746#2 55696746#3 55696746#4 -55696746#4 763981347#1 763981347#2 763981347#3 -162532787#1 -162532787#0 -162532763#2 -162532763#1 -162532763#0 -55696746#2 -55696746#1 -55696746#0 55696746#0 55696766#6 232538989#0 763981339#1 55696746#0 55696746#1 55696746#2 -55696746#2 -55696746#1 -55696746#0 55696746#0 55696746#1 55696746#2 -55696746#2 -55696746#1 55696766#6 55696766#7 162533708#2 335527368 334648917#1 335527364#0 763981347#0 -55696746#3 162532763#0 -162532763#0 -55696746#2 -55696746#1 -55696746#0 763981339#2 763981339#3 988853730#3 55696766#4 55696766#5 55696766#6 55696766#7 162533708#2 30525575 335527364#0 335527364#1 335527364#2" />
    </flow>
    
    <flow begin="0" end="10800" id="flow2" number="50" type="vtype1">
		<route edges="188308632#1 -188311662#1 -188311662#0 188311662#0 188311662#1 188308632#2 -988853724 -188307882#2 188307882#2 988853724 178430288#0 -188307636 -188307726 188307726 -188307726 188307757#0 188307757#1 188424198 -988853718#0 988853718#0 -988853718#0 988853718#0 988853718#1 -644918303#1 644918303#1 -988853718#1 -188424198 -188307757#1 -188307757#0 -644918326 -988853718#2 -988853718#1 -188424198 188424198 -988853718#0 988853718#0 988853718#1 188424049 -188307757#0 -644918326 644918326 188307726 988853723 -188307882#2 -188424408 188424408 188307882#2 988853724 -988853724 -188307882#2 -188307882#1 988853722 -988853722 188307882#1 -188424408 188424408 188307882#2 988853724 -188308632#2 188308632#2 178430288#0 -188307636 988853723 -988853723 -188307726 188307726 188307636 -178430288#0 -988853724 -988853723 988853723 -188307882#2 -188307882#1 -188307882#0 188307882#0 988853722 -988853722 -188307882#0 -188310314 -188310118#1 188310118#1 188310314 -188310376 188310376 -188310376 188310376 188307882#0 988853722 -988853722 188307882#1 -188307882#1 -188307882#0 188307882#0 -188307882#0 -188310376 188310376 -188310314 -188310118#1 -188310118#0 188310118#0 -188310118#0 188310118#0 188310118#1 188310314 -188310376 188310376 188307882#0 188307882#1 -188424408 188424408 188307882#2 -988853723 188307636 178430288#1 -178430288#1 178430288#1 178430288#2 -644918311 644918311 -178430288#2 178430288#2 -188307757#3 188422650 162540377#3 988853718#0 988853718#1 188424049 -188307757#0 -644918326 -988853718#2 -644918303#1 644918304 -644918306 988853718#0 -188424198 -188307757#1 188307757#1 188307757#2 188307757#3 -644918311 -644918310#0 188701914#0 188701914#1 -188701914#1 -188701914#0 644918310#0 644918310#1 162540377#2 -188422650 -188307757#2 188424198 -188424198 -188307757#1 -188424049 988853718#2 -988853718#2 -988853718#1 -188424198 -188307757#1 -188424049 -644918303#1 644918304 -644918306 -162540377#3 -188422650 -188307757#2 188307757#2 188307757#3 -644918311 -644918310#0 188701914#0 188701914#1 178430288#2 -178430288#2 -178430288#1 -178430288#0 -988853724 988853724 -188308632#2 -188308632#1 250516344 -250516344 -188308632#0 55696757#11 55696757#12 -55696757#12 -55696757#11 -55696757#10 55696757#10 188308632#0 -188308632#0 188308632#0 250516344 -250516344 250516344 -250516344 250516344 -250516344 188308632#1 -188308632#1 -188308632#0 -55696757#10 245736708#0 245736708#1 -245736708#1 245736708#1 -245736708#1 -245736708#0 245736708#0 -245736708#0 245736708#0 245736708#1 -245736708#1 -245736715 55696757#8 162540377#0 -644918305 -644918304 -644918303#0 988853721 -988853721 -988853718#2 -988853718#1 -188424198 188307757#2 188422650 -188422650 188422650 -162540377#2 -162540377#1 -162540377#0 162540377#0 -644918305 -644918304 -644918303#0 988853721 -988853721 988853721 -988853721 988853721 -988853721 -988853718#2 -644918303#1 -644918303#0 644918303#0 644918304 -644918306 -162540377#3 -162540377#2 162540377#2 -162540377#2 -162540377#1 -162540377#0 162540377#0 -644918305 -644918306 644918306 -644918304 644918304 644918305 -162540377#0 55696757#9 55696757#10 55696757#11 55696757#12 55696757#13 -55696757#13 -55696757#12 -55696757#11 188308632#0 188308632#1 -188311662#1 -188311662#0 188311662#0 188311662#1 -188311662#1 -188311662#0 188311662#0 188311662#1 -188308632#1 188308632#1 188308632#2 178430288#0 178430288#1 -188701914#1 -188701914#0 644918310#0 644918311 -188307757#3 188307757#3 -188307757#3 188307757#3 -178430288#2 -188701914#1 -188701914#0 644918310#0 -644918310#0 188701914#0 188701914#1 -178430288#1 -178430288#0 -988853724 -188307882#2 -188307882#1 -188307882#0 -188310314 -188310118#1 -988853721 988853721 -188310118#0 188310118#0 -988853721 -988853718#2 188424049 -188307757#0 188307726 988853723 -188307882#2 188307882#2 988853724 -188308632#2 -188308632#1 188308632#1 -188308632#1 -188308632#0 188308632#0 188308632#1 -188308632#1 250516344 -250516344 -188308632#0 -55696757#10 245736708#0 245736708#1 -245736708#1 245736708#1 -245736708#1 -245736715 55696757#8 162540377#0 162540377#1 162540377#2 162540377#3 644918306 -644918306 -162540377#3 162540377#3 644918306 -644918304 -644918303#0 644918326 188307726 988853723 988853724 -188308632#2 188308632#2 -188308632#2 -188308632#1 250516344 -250516344 -188308632#0 188308632#0 250516344 -250516344 188308632#1 -188308632#1 188308632#1 -188311662#1 -188311662#0 188311662#0 188311662#1 -188311662#1 -188311662#0 188311662#0 188311662#1 188308632#2 -988853724 -188307882#2 -188307882#1 -188307882#0 -188310314 -188310118#1 -988853721 644918303#0 644918304 -644918304 644918304 -644918306 644918306 -644918304 644918303#1 988853718#2 644918326 -644918326 988853721 -988853721 988853721 -188310118#0 188310118#0 188310118#1 188310314 -188310376 188310376 -188310376 188310376 -188310314 -188310118#1 -988853721 -988853718#2 -988853718#1 988853718#1 988853718#2 988853721 -188310118#0 188310118#0 -188310118#0 188310118#0 -988853721 -988853718#2 188424049 -188424049 188424049 -188307757#0 188307726 -188307726 -644918326 644918326 188307726 988853723 -188307882#2 -188307882#1 988853722 -988853722 188307882#1 188307882#2 988853724 -188308632#2 188308632#2 -188308632#2 -188308632#1 250516344 -250516344 250516344 -250516344 -188308632#0 -55696757#10 55696757#10 55696757#11 55696757#12 55696757#13 335513936#2 335513936#3 335513936#4 381473318#0 381473318#1 162532765#0 162532765#1 162532765#2 162532770#0 162532771 381409557 381409554 162532790 28320648#0 28320648#1 -169172414#3 -169172414#2 -169172414#1 -169172414#0 169172414#0 169172414#1 169172414#2 169172414#3 -169172414#3 -169172414#2 -169172414#1 -169172414#0 169172414#0 169172414#1 169172414#2 169172414#3 28320648#2 162658756#0 162658756#1 335527380#0 152429085" />
    </flow>
    <flow begin="0" end="10800" id="flow3" number="50" type="vtype1">
        <route edges="28320648#0 28320648#1 -169172414#3 162532768#3 162532768#4 334802592#1 28322141#0 28322141#1 28320653#6 335527377#3 162658756#1 28322141#0 28322141#1 28322141#2 28322141#3 28322141#4 28322141#5 28322141#6 28322141#7 335527393#0 763981361#2 763981335#0 763981335#1 463821575#0 -463821575#0 763981335#2 763981335#3 763981335#4 763981335#5 763981335#6 763981335#7 979484071 335513936#0 335513936#1 -55696757#13 988853730#0 988853730#1 988853730#2 988853730#3 55696766#4 988853729#0 763981339#3 988853730#3 55696766#4 55696766#5 -55696746#0 763981339#2 763981339#3 763981339#4 763981339#5 763981339#6 763981339#7 763981339#8 55696766#0 55696766#1 763981363#0 763981363#1 763981357#0 763981357#1 763981358#0 763981358#1" />
    </flow>
    <flow begin="0" end="10800" id="flow4" number="50" type="vtype2">
        <route edges="-55696757#7 55696761#5 988471124#0 988471124#1 -988471124#1 -988471124#0 973588631#0 -55696757#5 -142320579 55696749#1 -55696749#1 -55696749#0 55696749#0 142320579 -55696757#4 -55696757#3 -55696757#2 -55696757#1 335527377#1 335527377#2 335527377#3 364596850#0 364596850#1" />
    </flow>
    <flow begin="0" end="10800" id="flow5" number="50" type="vtype2">
        <route edges="-988853718#1 -188424198 188424198 -988853718#0 644918306 -644918306 644918306 -644918304 -644918303#0 644918326 188307757#0 -188424049 -988853718#1 -188424198 -188307757#1 -188424049 -644918303#1 -644918303#0 644918326 188307726 -188307726 188307726 988853723 -188307882#2 -188307882#1 988853722 -988853722 188307882#1 188307882#2 988853724 -988853724 -188307882#2 -188424408 188424408 188307882#2 988853724 178430288#0 178430288#1 -188701914#1 -188701914#0 644918310#0 -644918310#0 188701914#0 188701914#1 -188701914#1 -188701914#0 644918310#0 644918310#1 162540377#2 -188422650 -188307757#2 188424198 -988853718#0 644918306 644918305 162540377#1 -644918310#1 644918311 -178430288#2 -178430288#1 -188307636 -188307726 188307757#0 188307757#1 188307757#2 188422650 -162540377#2 -644918310#1 644918310#1 -162540377#1 -162540377#0 55696757#9 55696757#10 188308632#0 -188308632#0 -55696757#10 245736708#0 -245736715 55696757#8 55696757#9 55696757#10 -55696757#10 245736708#0 -245736715 245736715 -245736715 55696757#8 -55696757#8 245736715 -245736708#0 55696757#10 188308632#0 188308632#1 -188311662#1 -188311662#0 188311662#0 188311662#1 188308632#2 178430288#0 178430288#1 -178430288#1 -188307636 -188307726 188307757#0 -188424049 988853718#2 644918303#0 644918303#1 -988853718#1 -188424198 -188307757#1 -188424049 188424049 -188424049 -988853718#1 -188424198 188424198 -188424198 -188307757#1 -188307757#0 188307726 -188307726 188307757#0 -188307757#0 -644918326 988853721 -988853721 644918326 -644918326 988853721 -188310118#0 188310118#0 188310118#1 188310314 -188310376 188310376 188307882#0 -188307882#0 -188310314 -188310118#1 -188310118#0 188310118#0 188310118#1 188310314 -188310314 -188310118#1 -988853721 -988853718#2 988853718#2 644918326 -644918326 -988853718#2 -988853718#1 -188424198 188307757#2 188307757#3 -178430288#2 -188701914#1 -188701914#0 644918310#0 644918311 -178430288#2 -178430288#1 178430288#1 -188701914#1 -188701914#0 644918310#0 -644918310#0 188701914#0 188701914#1 178430288#2 -178430288#2 -178430288#1 -188307636 -188307726 188307757#0 -188424049 -644918303#1 644918303#1 988853718#2 988853721 -988853721 988853721 -988853721 644918303#0 644918303#1 188424049 -188424049 -988853718#1 -188424198 -188307757#1 -188307757#0 -644918326 644918326 188307726 988853723 988853724 -988853724 -988853723 -188307726 -644918326 -988853718#2 -988853718#1 -188424198 188307757#2 188422650 162540377#3 644918306 644918305 162540377#1 -162540377#1 -162540377#0 162540377#0 -644918305 -644918304 -644918303#0 644918326 188307726 188307636 178430288#1 -178430288#1 -188307636 -188307726 188307757#0 188307757#1 -188307757#1 -188424049 -988853718#1 -188424198 188424198 -988853718#0 988853718#0 -188424198 188424198 -988853718#0 -162540377#3 162540377#3 988853718#0 988853718#1 988853718#2 644918303#0 -644918303#0 644918326 188307757#0 188307757#1 188424198 -188424198 188307757#2 -188307757#2 188424198 -988853718#0 -162540377#3 -188422650 188307757#3 -188307757#3 188422650 -162540377#2 -644918310#1 644918311 -188307757#3 -188307757#2 -188307757#1 -188424049 -644918303#1 644918304 -644918304 644918303#1 988853718#2 644918303#0 644918303#1 -644918303#1 -644918303#0 644918326 188307726 988853723 -188307882#2 -188307882#1 188307882#1 188307882#2 988853724 -988853724 -988853723 -188307726 188307757#0 -188307757#0 -644918326 -988853718#2 988853718#2 644918326 188307726 988853723 -188307882#2 -188307882#1 -188307882#0 -188310314 -188310118#1 188310118#1 188310314 188307882#0 -188307882#0 -188310314 -188310118#1 -188310118#0 188310118#0 188310118#1 188310314 188307882#0 188307882#1 188307882#2 988853724 -188308632#2 -188311662#1 -188311662#0 188311662#0 188311662#1 -188308632#1 250516344 -250516344 -188308632#0 55696757#11 55696757#12 -55696757#12 -55696757#11 55696757#11 55696757#12 988853730#0 988853730#1 988853730#2 988853730#3 55696766#4 55696766#5 55696746#1 55696746#2 55696746#3 763981347#1 245404523#0 162532773#0 -162532773#0 245404523#1 162532763#1 162532789#0 -162532789#0 162532789#0 162532773#1 -162532787#0 162532763#3 -162532763#3 -162532763#2 -162532763#1 162532763#1 162532789#0 -162532773#0 -245404523#0 245404523#0 245404523#1 162532763#1 162532789#0 -162532789#0 162532763#2 162532763#3 55696765#1 55696765#2 55696766#3 55696766#4 988853729#0 988853729#1 988853729#2 335513936#2 335513936#3 335513936#4 381473318#0 381473318#1 162532765#0 162532765#1 162532765#2 162532770#0 162532771 381409557 381409554 162532785#1 162540383#2 162540383#3 162540383#4 162542043#2 162542043#3 381473319#0 381473319#1 381473319#2 988853730#0 335513936#1 335513936#2 335513936#3 152428515 162532761#8 162532761#0 162532761#1 162532761#2 162540374 381473316#1 381473316#2 381473316#3" />
    </flow>
    <flow begin="0" end="10800" id="flow6" number="50" type="vtype2">
        <route edges="335518633#3 162540384 162532761#4 162532761#5 162532761#6 162532933 381473319#1 381473319#2 55696757#13 -55696757#13 -55696757#12 -55696757#11 55696757#11 55696757#12 -55696757#12 -55696757#11 -55696757#10 245736708#0 -245736715 -55696757#7 -55696757#6 973588631#1 973588631#2 763981335#3 763981335#4 763981335#5 763981335#6 763981335#7 979484071 335513936#0 988853730#1 988853730#2 763981339#4 763981339#5 763981339#6 763981339#7 763981339#8 55696766#0 55696766#1 55696766#2 55696766#3 55696766#4 988853729#0 988853729#1 988853729#2 335513936#2 335513936#3 152428515 162532761#8 162532761#0 162532761#1 162532761#2 162540374 28275322#0 28275322#1 28275322#2 -142320577#0 235001188#3 235001188#4 381473316#2 381473316#3" />
    </flow>
    <flow begin="0" end="10800" id="flow7" number="50" type="vtype2">
        <route edges="162532775#0 162532779 381409555 381409556 162532762 293499687 152428518#0 162533708#0 763981339#0 -232538989#0 232538989#0 -232538989#0 232538989#0 763981339#1 55696746#0 55696766#6 55696766#7 162533708#2 30525575 335527364#0 763981347#0 763981347#1 763981347#2 -162532789#1 -162532773#0 245404523#1 162532763#1 -162532763#1 -162532763#0 -55696746#2 -55696746#1 55696746#1 55696746#2 55696746#3 55696746#4 334648915#1 335527364#2" />
    </flow>
    <flow begin="0" end="10800" id="flow8" number="50" type="vtype2">
        <route edges="-188307757#0 -644918326 -988853718#2 988853718#2 988853721 -988853721 988853721 -188310118#0 188310118#0 188310118#1 188310314 -188310376 188310376 188307882#0 988853722 -988853722 188307882#1 -188424408 188424408 -188307882#1 -188307882#0 -188310314 -188310118#1 188310118#1 188310314 -188310314 -188310118#1 -188310118#0 188310118#0 188310118#1 188310314 188307882#0 188307882#1 -188424408 188424408 -188307882#1 988853722 -988853722 -188307882#0 -188310376 188310376 -188310376 188310376 188307882#0 988853722 -988853722 188307882#1 188307882#2 988853724 -188308632#2 -188308632#1 250516344 -250516344 250516344 -250516344 250516344 -250516344 250516344 -250516344 250516344 -250516344 188308632#1 188308632#2 178430288#0 178430288#1 -188701914#1 -188701914#0 644918310#0 644918311 -178430288#2 -178430288#1 -178430288#0 -188308632#2 -188308632#1 250516344 -250516344 250516344 -250516344 250516344 -250516344 -188308632#0 -55696757#10 245736708#0 -245736715 245736715 245736708#1 -245736708#1 245736708#1 266773682#3 266773682#4 266773682#5 -55696749#1 -55696749#0 142321170#1 568101302 -568101302 -142321170#1 -142321170#0 55696757#4 55696757#5 55696757#6 -55696757#6 973588631#1 973588631#2 973588631#3 235001456#1 -235001456#1 -235001456#0 55696761#2 763981335#4 763981335#5 172623555#2 266773682#2 266773682#3 266773682#4 973588631#2 763981335#3 763981335#4 763981335#5 763981335#6 763981335#7 979484071 335513936#0 335513936#1 335513936#2 335513936#3 152428515 162532761#8 162532761#0 162532761#1 162532761#2 162532761#3 162532761#4 162532768#0 162532768#1 162532768#2 162532768#3 364596850#1" />
    </flow>
    <flow begin="0" end="10800" id="flow9" number="50" type="vtype2">
        <route edges="988872289 -988872289 988872289 162532768#2 169172414#3 -169172414#3 162532768#3 364596850#1" />
    </flow>
    <flow begin="0" end="10800" id="flow10" number="50" type="vtype2">
        <route edges="-188307757#0 188307726 988853723 -188307882#2 -188307882#1 188307882#1 188307882#2 988853724 -988853724 -188307882#2 -188307882#1 188307882#1 188307882#2 -988853723 188307636 -188307636 188307636 -188307636 -188307726 188307726 188307636 178430288#1 -188701914#1 -188701914#0 644918310#0 -644918310#0 188701914#0 188701914#1 178430288#2 -178430288#2 -178430288#1 -188307636 988853723 -188307882#2 -188307882#1 988853722 -988853722 188307882#1 -188424408 188424408 188307882#2 988853724 -188308632#2 -188308632#1 250516344 -250516344 188308632#1 -188311662#1 -188311662#0 188311662#0 188311662#1 188308632#2 178430288#0 178430288#1 -188701914#1 -188701914#0 644918310#0 644918310#1 -162540377#1 -644918305 -644918306 988853718#0 988853718#1 188424049 188307757#1 188307757#2 188307757#3 -178430288#2 178430288#2 -644918311 644918310#1 -644918310#1 -644918310#0 188701914#0 188701914#1 178430288#2 -644918311 644918310#1 -162540377#1 -644918305 644918305 162540377#1 -644918310#1 644918311 -188307757#3 -188307757#2 -188307757#1 -188307757#0 188307726 188307636 -178430288#0 -988853724 -188307882#2 -188307882#1 188307882#1 188307882#2 988853724 -188308632#2 -188308632#1 250516344 -250516344 -188308632#0 55696757#11 55696757#12 988853730#0 988853730#1 988853730#2 763981339#4 979484070#1 568945053 -568945053 568945053 -568945053 979484070#2 266773682#0 266773682#1 -172623555#2 172623555#2 -172623555#2 763981335#6 763981335#7 979484072#0 979484072#1 763981339#6 763981339#7 763981339#8 55696766#0 55696766#1 763981363#0 763981363#1 776349482#0 776349482#1 -776349482#1 -776349482#0 763981357#0 763981357#1 763981358#0 763981358#1" />
    </flow>
    <vehicle depart="0" departPos="random" departSpeed="random" id="1" type="vtype2">
        <route edges="142320577#4 988821757#1 988821757#2 162532761#2 162540374 381473316#1 381473316#2 381473316#3" />
    </vehicle>
    <vehicle depart="0" departPos="random" departSpeed="random" id="2" type="vtype2">
        <route edges="-188424198 188424198 -988853718#0 -162540377#3 -188422650 188307757#3 -178430288#2 -188701914#1 -188701914#0 644918310#0 644918310#1 -644918310#1 644918311 -188307757#3 -188307757#2 -188307757#1 -188424049 988853718#2 644918326 -644918326 -988853718#2 188424049 188307757#1 188307757#2 188307757#3 -188307757#3 188307757#3 -188307757#3 188307757#3 -188307757#3 -188307757#2 188424198 -988853718#0 988853718#0 988853718#1 -644918303#1 644918304 644918305 -644918305 644918305 -644918305 -644918306 644918306 644918305 162540377#1 162540377#2 -162540377#2 -162540377#1 -162540377#0 55696757#9 55696757#10 -55696757#10 245736708#0 245736708#1 266773682#3 55696761#4 55696757#7 -55696757#7 -55696757#6 973588631#1 973588631#2 973588631#3 235001456#1 183399832#2 969127972#6 969127972#7 969127972#8 335518216#4 335518216#5 763981335#0 763981335#1 763981335#2 763981335#3 55696761#3 266773682#4 973588631#2 973588631#3 973588631#4 973588631#5 335560622#9 55696761#0 55696761#1 235001456#0 973588631#4 969127972#5 969127972#6 969127972#7 969127972#8 969127972#9 335527393#2 335527393#3 335527393#4 335527393#5" />
    </vehicle>
    <vehicle depart="0" departPos="random" departSpeed="random" id="3" type="vtype2">
        <route edges="763981343#2 763981343#3 28488329#1 28482923#2 28482923#3 28482923#4 -28718652#1 -28718652#0 28718652#0 28718652#1 28718652#2 -28718652#2 28718652#2 -28718652#2 -28718652#1 763981343#3 28488329#1 28488329#2 28738544#2 28738544#3 -28718659 28718659 28738544#4 457301943#0 457301943#1 457301943#2 315561296#0 -28718652#2 28482923#5 28482923#6 28718654#1 763981343#1 -28718657#0 28718654#3" />
    </vehicle>
    <vehicle depart="0" departPos="random" departSpeed="random" id="4" type="vtype2">
        <route edges="169172414#3 -169172414#3 162532768#3 162532768#4 334802592#1 335527380#0 152429085" />
    </vehicle>
    <vehicle depart="0" departPos="random" departSpeed="random" id="5" type="vtype2">
        <route edges="55696766#5 -55696746#0 55696746#0 -55696746#0 55696746#0 -55696746#0 55696746#0 55696766#6 232538989#0 763981339#1 763981339#2 988853729#1 988853729#2 335513936#2 335513936#3 152428515 162532761#8 162532761#0 162532761#1 162532761#2 162532761#3 162532761#4 162532761#5 162532761#6 162532933 381473319#1 381473319#2 988853730#0 335513936#1 -55696757#13 -55696757#12 -55696757#11 -55696757#10 245736708#0 -245736715 -55696757#7 55696761#5 988471124#0 988471124#1 -988471124#1 -988471124#0 973588631#0 -55696757#5 55696757#5 55696757#6 55696761#5 988471124#0 988471124#1 988471124#2 335527372#1 28320650 381473923 162532779 381409555 381409556 162532762 293499687 152428518#0 162533708#0 162533708#1 162533708#2 335527368 334648917#1 335527364#0 335527364#1 335527364#2" />
    </vehicle>
    <vehicle depart="0" departPos="random" departSpeed="random" id="6" type="vtype2">
        <route edges="315561296#3 28320653#5 28320653#6 335527377#3 364596850#0 162532768#4 334802592#1 28322141#0 28322141#1 28320653#6 335527377#3 364596850#0 364596850#1" />
    </vehicle>
    <vehicle depart="0" departPos="random" departSpeed="random" id="7" type="vtype2">
        <route edges="335513936#1 335513936#2 335513936#3 335513936#4 381473318#0 162532772 293499688 162532781#1 763981339#0 763981339#1 763981339#2 763981339#3 988853730#3 55696766#4 988853729#0 763981339#3 763981339#4 763981339#5 979484072#2 763981363#0 763981363#1 776349482#0 776349482#1 -776349482#1 -776349482#0 776349482#0 776349482#1 -776349482#1 -776349482#0 776349482#0 776349482#1 -776349482#1 -776349482#0 776349482#0 776349482#1 -776349482#1 -776349482#0 763981357#0 763981357#1 763981358#0 763981358#1" />
    </vehicle>
    <vehicle depart="0" departPos="random" departSpeed="random" id="8" type="vtype2">
        <route edges="55696761#2 55696761#3 266773682#4 973588631#2 973588631#3 973588631#4 973588631#5 335560622#9 335560622#10 235002633#0 -235002631#1 -235002631#0 235002631#0 279074007 245405180#5 568945054#1 -568945054#1 245405180#6 -245405180#6 245405180#6 -245405180#6 -568945054#0 335560622#13 172623555#0 -172623555#0 172623555#0 172623555#1 172623555#2 266773682#2 266773682#3 266773682#4 973588631#2 973588631#3 973588631#4 969127972#5 -183399832#2 183399832#2 183399832#3 335560622#5 335560622#6 335560622#7 335560622#8 335560622#9 335560622#10 335560622#11 235002631#0 -235002631#0 235002631#0 279074007 -279074007 279074007 245405180#5 568945054#1 -568945054#1 -568945054#0 335560622#13 335560622#14 -245405180#6 568945054#1 -568945054#1 245405180#6 335560622#15 334648176#3 987768589#0 -279074002#1 -279074002#0 -245405180#2 245405180#2 -245405180#2 279074005 -279074005 -245405180#1 -245405180#0 457301965#0 457301965#1 266773677#0 266773677#1 335518216#0 335518216#1 335518216#2 335518216#3 335518216#4 235001457#0 235001457#1 235001457#2 -183399832#0 183399832#0 183399832#1 -235001456#1 235001456#1 183399832#2 183399832#3 335560622#5 335560622#6 335560622#7 335560622#8 335560622#9 55696761#0 969127972#4 973588631#5 335560622#9 335560622#10 235002633#0 235002631#2 235002631#3 -235002631#3 279074009#2 -279074009#2 -279074009#1 -279074009#0 245405180#1 245405180#2 245405180#3 235002633#2 -235002633#2 245405180#4 245405180#5 568945054#1 -568945054#1 -245405180#5 -245405180#4 -245405180#3 245405180#3 235002633#2 -235002633#2 -235002633#1 235002633#1 -245405180#3 279074002#0 -279074002#0 245405180#3 -245405180#3 279074002#0 -279074002#0 279074002#0 -235002633#2 -245405180#3 279074002#0 279074002#1 987768589#1 987768589#2 -457301965#0 245405180#0 279074009#0 -279074009#0 245405180#1 245405180#2 245405180#3 -235002633#1 -235002631#1 -235002631#0 335560622#12 335560622#13 172623555#0 969127972#3 969127972#4 969127972#5 969127972#6 969127972#7 969127972#8 969127972#9 335527393#2 335527393#3 335527393#4 987768589#8" />
    </vehicle>
    <vehicle depart="0" departPos="random" departSpeed="random" id="9" type="vtype2">
        <route edges="335518216#3 335518216#4 335518216#5 763981335#0 763981335#1 463821575#0 463821578 -463821578 463821575#1 463821577 -463821577 463821575#2 463821576 -463821576 463821575#3 -463821575#3 -463821575#2 463821577 -463821577 -463821575#1 -463821575#0 463821575#0 463821575#1 463821575#2 -463821575#2 463821575#2 -463821575#2 -463821575#1 463821578 -463821578 463821575#1 -463821575#1 -463821575#0 763981335#2 763981335#3 763981335#4 763981335#5 763981335#6 763981335#7 979484072#0 979484072#1 979484072#2 55696766#2 979484070#0 763981339#5 763981339#6 763981339#7 763981339#8 55696766#0 55696766#1 55696766#2 55696766#3 55696766#4 55696766#5 55696766#6 55696766#7 162533708#2 335527368 334648917#1 335527364#0 335527364#1 335527364#2" />
    </vehicle>
    <vehicle depart="0" departPos="random" departSpeed="random" id="10" type="vtype2">
        <route edges="-245736708#0 55696757#10 -55696757#10 -55696757#9 -55696757#8 245736715 -245736708#0 -55696757#9 55696757#9 -55696757#9 -55696757#8 -55696757#7 55696757#7 -55696757#7 -55696757#6 55696757#6 -55696757#6 -55696757#5 -142320579 55696749#1 266773682#6 335527388 335527395#0 335527395#1 28482923#0 28482923#1 28488329#2 28738544#2 28738544#3 -28718659 28718659 28738544#4 457301943#0 973574011#0 973574011#1 28322141#6 28322141#7 335527393#0 335527393#1 335527393#2 335560622#0 335518216#3 335518216#4 335518216#5 335518216#6 335527388 335527393#0 763981361#2 335518216#6 335527388 335527395#0 335527395#1 28482923#0 28482923#1 28482923#2 28482923#3 28482923#4 -28718652#1 763981343#3 763981343#4" />
    </vehicle>
    <vehicle depart="0" departPos="random" departSpeed="random" id="11" type="vtype2">
        <route edges="-235001456#1 973588631#4 969127972#5 183399832#3 335560622#5 335560622#6 335560622#7 335560622#8 335560622#9 335560622#10 235002633#0 235002631#2 -279074009#1 279074006 457301964#0 457301964#1 183399832#6 183399832#7 987768589#5 987768589#6 335518216#1 335518216#2 335518216#3 969127972#9 335527393#2 335527393#3 335527393#4 335527393#5" />
    </vehicle>
    <vehicle depart="0" departPos="random" departSpeed="random" id="12" type="vtype2">
        <route edges="152428515 162532761#8 162532761#0 162532761#1 162532761#2 162540374 28275322#0 28275322#1 988872291 235001188#4 381473316#2 187184131#2 335518633#2 216086967#0 216086967#1 988872289 -988872289 988872289 162532768#2 162532768#3 364596850#1" />
    </vehicle>
    <vehicle depart="0" departPos="random" departSpeed="random" id="13" type="vtype2">